
     RDKit          3D

 32 33  0  0  0  0  0  0  0  0999 V2000
   10.6450    1.0320  -11.8290 C   0  0  0  0  0  0  0  0  0  0  0  0
   11.1990   -0.1890   -9.7300 C   0  0  2  0  0  0  0  0  0  0  0  0
   10.3120    0.8220  -10.3950 C   0  0  1  0  0  0  0  0  0  0  0  0
   11.0360   -0.0450   -8.2470 C   0  0  2  0  0  0  0  0  0  0  0  0
   10.6810    2.2910   -9.3770 S   0  0  0  0  0  0  0  0  0  0  0  0
    9.4130    1.2470  -12.6470 C   0  0  0  0  0  0  0  0  0  0  0  0
    9.4080    2.5620  -13.3820 C   0  0  0  0  0  0  0  0  0  0  0  0
   10.2640    3.5690  -12.6210 C   0  0  0  0  0  0  0  0  0  0  0  0
   11.2540    1.4010   -7.8730 C   0  0  0  0  0  0  0  0  0  0  0  0
   11.5530    3.7140  -13.3200 C   0  0  0  0  0  0  0  0  0  0  0  0
   11.7370    4.7070  -14.0630 O   0  0  0  0  0  0  0  0  0  0  0  0
   12.5780    2.7850  -13.1910 O   0  0  0  0  0  0  0  0  0  0  0  0
   12.2250   -0.7630   -7.7720 N   0  0  0  0  0  0  0  0  0  0  0  0
   13.2280   -0.4390   -8.7310 C   0  0  0  0  0  0  0  0  0  0  0  0
   14.4820   -0.5950   -8.5140 O   0  0  0  0  0  0  0  0  0  0  0  0
   12.6100    0.0640   -9.9100 N   0  0  0  0  0  0  0  0  0  0  0  0
   11.1759    0.1458  -12.2070 H   0  0  0  0  0  0  0  0  0  0  0  0
   11.2768    1.9287  -11.9109 H   0  0  0  0  0  0  0  0  0  0  0  0
   10.9149   -1.1595  -10.1630 H   0  0  0  0  0  0  0  0  0  0  0  0
    9.2501    0.5377  -10.4333 H   0  0  0  0  0  0  0  0  0  0  0  0
   10.0628   -0.3863   -7.8643 H   0  0  0  0  0  0  0  0  0  0  0  0
    8.5402    1.2175  -11.9781 H   0  0  0  0  0  0  0  0  0  0  0  0
    9.3816    0.4501  -13.4046 H   0  0  0  0  0  0  0  0  0  0  0  0
    8.3768    2.9378  -13.4554 H   0  0  0  0  0  0  0  0  0  0  0  0
    9.8177    2.4202  -14.3930 H   0  0  0  0  0  0  0  0  0  0  0  0
   10.4368    3.2088  -11.5961 H   0  0  0  0  0  0  0  0  0  0  0  0
    9.7500    4.5405  -12.5755 H   0  0  0  0  0  0  0  0  0  0  0  0
   12.3162    1.6038   -7.6714 H   0  0  0  0  0  0  0  0  0  0  0  0
   10.7248    1.7018   -6.9568 H   0  0  0  0  0  0  0  0  0  0  0  0
   12.7720    2.0860  -13.9060 H   0  0  0  0  0  0  0  0  0  0  0  0
   12.2250   -1.3470   -6.9280 H   0  0  0  0  0  0  0  0  0  0  0  0
   13.1120    0.5130  -10.7040 H   0  0  0  0  0  0  0  0  0  0  0  0
  1  2  1  0
  2  3  1  0
  3  4  1  0
  4  5  1  0
  4  6  1  0
  6  7  1  0
  7  8  1  0
  8  9  1  0
  9 10  1  0
 10 11  2  0
 10 12  1  0
  3 13  1  0
 13 14  1  0
 14 15  2  0
 14 16  1  0
  5  1  1  0
 16  2  1  0
  1 17  1  0
  1 18  1  0
  2 19  1  1
  3 20  1  6
  4 21  1  6
  6 22  1  0
  6 23  1  0
  7 24  1  0
  7 25  1  0
  8 26  1  0
  8 27  1  0
  9 28  1  0
  9 29  1  0
 12 30  1  0
 13 31  1  0
 16 32  1  0
M  END
>  <score_type>  (1) 
oracle

>  <energy>  (1) 
[-7.78, -7.61, -7.61, -7.61, -7.59, -7.57, -7.56, -7.53, -7.51, -7.5, -7.47, -7.39, -7.36, -7.31, -7.25, -7.25, -7.16, -7.09, -7.03, -6.76]

$$$$