GXTHWFWNSXFFOY-RFBDCVRPNA-L
     RDKit          3D

 29 30  0  0  0  0  0  0  0  0999 V2000
    8.7930    5.0630  -13.8670 O   0  0  0  0  0  0  0  0  0  0  0  0
    9.4420    4.0200  -14.1440 C   0  0  0  0  0  0  0  0  0  0  0  0
    8.8550    3.0310  -14.9240 O   0  0  0  0  0  1  0  0  0  0  0  0
   11.1110    0.4620   -8.1380 C   0  0  0  0  0  0  0  0  0  0  0  0
   11.2840    2.4340  -13.7310 N   0  0  0  0  0  4  0  0  0  0  0  0
   11.1240    0.5600   -9.6630 C   0  0  0  0  0  0  0  0  0  0  0  0
   11.1920    2.6610  -11.2070 C   0  0  0  0  0  0  0  0  0  0  0  0
   11.3810    1.7370  -12.4330 C   0  0  1  0  0  0  0  0  0  0  0  0
   10.8330    2.7490   -8.7670 O   0  0  0  0  0  0  0  0  0  0  0  0
   10.7170    1.8620   -7.6790 C   0  0  0  0  0  0  0  0  0  0  0  0
   10.8340    3.8340  -13.6160 C   0  0  2  0  0  0  0  0  0  0  0  0
   12.5090    0.3530  -10.0750 N   0  0  0  0  0  2  0  0  0  0  0  0
   13.2450    0.0950   -8.9010 C   0  0  0  0  0  0  0  0  0  0  0  0
   14.4800   -0.1430   -8.9040 O   0  0  0  0  0  0  0  0  0  0  0  0
   12.4720    0.1400   -7.7250 N   0  0  0  0  0  2  0  0  0  0  0  0
   10.6170    1.9820   -9.9300 C   0  0  1  0  0  0  0  0  0  0  0  0
   10.4298   -0.2968   -7.7256 H   0  0  0  0  0  0  0  0  0  0  0  0
   10.5081   -0.1690  -10.2101 H   0  0  0  0  0  0  0  0  0  0  0  0
   12.2270    2.4170  -14.1880 H   0  0  0  0  0  0  0  0  0  0  0  0
   10.6390    1.9180  -14.3700 H   0  0  0  0  0  0  0  0  0  0  0  0
    9.5423    1.9155  -10.1550 H   0  0  0  0  0  0  0  0  0  0  0  0
   11.5200    4.4760  -14.1880 H   0  0  0  0  0  0  0  0  0  0  0  0
   12.1734    3.0864  -10.9504 H   0  0  0  0  0  0  0  0  0  0  0  0
   10.4453    3.4100  -11.5094 H   0  0  0  0  0  0  0  0  0  0  0  0
   12.3993    1.3260  -12.3678 H   0  0  0  0  0  0  0  0  0  0  0  0
   11.3841    2.1854   -6.8663 H   0  0  0  0  0  0  0  0  0  0  0  0
    9.6798    1.8557   -7.3126 H   0  0  0  0  0  0  0  0  0  0  0  0
   10.6064    0.9567  -12.4007 H   0  0  0  0  0  0  0  0  0  0  0  0
   10.8330    4.1050  -12.5499 H   0  0  0  0  0  0  0  0  0  0  0  0
  1  2  2  0
  2  3  1  0
  2  4  1  0
  4  5  1  0
  5  6  1  0
  6  7  1  0
  7  8  1  0
  8  9  1  0
  9 10  1  0
 10 11  1  0
 11 12  1  0
 12 13  1  0
 13 14  2  0
 13 15  1  0
 15 16  1  0
 16  8  1  0
 16 11  1  0
  4 17  1  0
  4 18  1  0
  5 19  1  0
  5 20  1  0
  6 21  1  0
  6 22  1  0
  7 23  1  0
  7 24  1  0
  8 25  1  6
 10 26  1  0
 10 27  1  0
 11 28  1  6
 16 29  1  6
M  CHG  4   3  -1   5   1  12  -1  15  -1
M  END
>  <UniqueID>  (1) 
2

>  <SMILES>  (1) 
O=C([O-])C[NH2+]CC[C@@H]1OC[C@@H]2[N-]C(=O)[N-][C@@H]21

>  <Energy>  (1) 
47.5623624453901

>  <Genealogy>  (1) 
O=C([O-])C[NH2+]CC[C@@H]1OC[C@@H]2[N-]C(=O)[N-][C@@H]21 (protonated)
O=C([O-])C[NH2+]CC[C@@H]1OC[C@@H]2[N-]C(=O)[N-][C@@H]21 (3D coordinates assigned)
O=C([O-])C[NH2+]CC[C@@H]1OC[C@@H]2[N-]C(=O)[N-][C@@H]21 (nonaromatic ring conformer: 47.5623624453901 kcal/mol)

>  <score_type>  (1) 
oracle

>  <energy>  (1) 
[-6.36, -6.33, -6.15, -5.82, -5.63, -5.81, -5.81, -5.8, -5.79, -5.79, -5.73, -5.73, -5.73, -5.4, -4.5, -5.01, -4.98, -4.95, -3.39, -3.03]

$$$$
GXTHWFWNSXFFOY-RFBDCVRPNA-L
     RDKit          3D

 29 30  0  0  0  0  0  0  0  0999 V2000
    8.7930    5.0630  -13.8670 O   0  0  0  0  0  0  0  0  0  0  0  0
    9.4420    4.0200  -14.1440 C   0  0  0  0  0  0  0  0  0  0  0  0
    8.8550    3.0310  -14.9240 O   0  0  0  0  0  1  0  0  0  0  0  0
   11.1110    0.4620   -8.1380 C   0  0  0  0  0  0  0  0  0  0  0  0
   11.2840    2.4340  -13.7310 N   0  0  0  0  0  4  0  0  0  0  0  0
   11.1240    0.5600   -9.6630 C   0  0  0  0  0  0  0  0  0  0  0  0
   11.1920    2.6610  -11.2070 C   0  0  0  0  0  0  0  0  0  0  0  0
   11.3810    1.7370  -12.4330 C   0  0  1  0  0  0  0  0  0  0  0  0
   10.8330    2.7490   -8.7670 O   0  0  0  0  0  0  0  0  0  0  0  0
   10.7170    1.8620   -7.6790 C   0  0  0  0  0  0  0  0  0  0  0  0
   10.8340    3.8340  -13.6160 C   0  0  2  0  0  0  0  0  0  0  0  0
   12.5090    0.3530  -10.0750 N   0  0  0  0  0  2  0  0  0  0  0  0
   13.2450    0.0950   -8.9010 C   0  0  0  0  0  0  0  0  0  0  0  0
   14.4800   -0.1430   -8.9040 O   0  0  0  0  0  0  0  0  0  0  0  0
   12.4720    0.1400   -7.7250 N   0  0  0  0  0  2  0  0  0  0  0  0
   10.6170    1.9820   -9.9300 C   0  0  1  0  0  0  0  0  0  0  0  0
   10.4298   -0.2968   -7.7256 H   0  0  0  0  0  0  0  0  0  0  0  0
   10.5081   -0.1690  -10.2101 H   0  0  0  0  0  0  0  0  0  0  0  0
   12.2270    2.4170  -14.1880 H   0  0  0  0  0  0  0  0  0  0  0  0
   10.6390    1.9180  -14.3700 H   0  0  0  0  0  0  0  0  0  0  0  0
    9.5423    1.9155  -10.1550 H   0  0  0  0  0  0  0  0  0  0  0  0
   11.5200    4.4760  -14.1880 H   0  0  0  0  0  0  0  0  0  0  0  0
   12.1734    3.0864  -10.9504 H   0  0  0  0  0  0  0  0  0  0  0  0
   10.4453    3.4100  -11.5094 H   0  0  0  0  0  0  0  0  0  0  0  0
   12.3993    1.3260  -12.3678 H   0  0  0  0  0  0  0  0  0  0  0  0
   11.3841    2.1854   -6.8663 H   0  0  0  0  0  0  0  0  0  0  0  0
    9.6798    1.8557   -7.3126 H   0  0  0  0  0  0  0  0  0  0  0  0
   10.6064    0.9567  -12.4007 H   0  0  0  0  0  0  0  0  0  0  0  0
   10.8330    4.1050  -12.5499 H   0  0  0  0  0  0  0  0  0  0  0  0
  1  2  2  0
  2  3  1  0
  2  4  1  0
  4  5  1  0
  5  6  1  0
  6  7  1  0
  7  8  1  0
  8  9  1  0
  9 10  1  0
 10 11  1  0
 11 12  1  0
 12 13  1  0
 13 14  2  0
 13 15  1  0
 15 16  1  0
 16  8  1  0
 16 11  1  0
  4 17  1  0
  4 18  1  0
  5 19  1  0
  5 20  1  0
  6 21  1  0
  6 22  1  0
  7 23  1  0
  7 24  1  0
  8 25  1  6
 10 26  1  0
 10 27  1  0
 11 28  1  6
 16 29  1  6
M  CHG  4   3  -1   5   1  12  -1  15  -1
M  END
>  <UniqueID>  (2) 
2

>  <SMILES>  (2) 
O=C([O-])C[NH2+]CC[C@@H]1OC[C@@H]2[N-]C(=O)[N-][C@@H]21

>  <Energy>  (2) 
47.5623624453901

>  <Genealogy>  (2) 
O=C([O-])C[NH2+]CC[C@@H]1OC[C@@H]2[N-]C(=O)[N-][C@@H]21 (protonated)
O=C([O-])C[NH2+]CC[C@@H]1OC[C@@H]2[N-]C(=O)[N-][C@@H]21 (3D coordinates assigned)
O=C([O-])C[NH2+]CC[C@@H]1OC[C@@H]2[N-]C(=O)[N-][C@@H]21 (nonaromatic ring conformer: 47.5623624453901 kcal/mol)

>  <score_type>  (2) 
oracle

>  <energy>  (2) 
[-6.36, -6.33, -6.15, -5.82, -5.63, -5.81, -5.81, -5.8, -5.79, -5.79, -5.73, -5.73, -5.73, -5.4, -4.5, -5.01, -4.98, -4.95, -3.39, -3.03]

$$$$
GXTHWFWNSXFFOY-RFBDCVRPNA-L
     RDKit          3D

 29 30  0  0  0  0  0  0  0  0999 V2000
    8.7930    5.0630  -13.8670 O   0  0  0  0  0  0  0  0  0  0  0  0
    9.4420    4.0200  -14.1440 C   0  0  0  0  0  0  0  0  0  0  0  0
    8.8550    3.0310  -14.9240 O   0  0  0  0  0  1  0  0  0  0  0  0
   11.1110    0.4620   -8.1380 C   0  0  0  0  0  0  0  0  0  0  0  0
   11.2840    2.4340  -13.7310 N   0  0  0  0  0  4  0  0  0  0  0  0
   11.1240    0.5600   -9.6630 C   0  0  0  0  0  0  0  0  0  0  0  0
   11.1920    2.6610  -11.2070 C   0  0  0  0  0  0  0  0  0  0  0  0
   11.3810    1.7370  -12.4330 C   0  0  1  0  0  0  0  0  0  0  0  0
   10.8330    2.7490   -8.7670 O   0  0  0  0  0  0  0  0  0  0  0  0
   10.7170    1.8620   -7.6790 C   0  0  0  0  0  0  0  0  0  0  0  0
   10.8340    3.8340  -13.6160 C   0  0  2  0  0  0  0  0  0  0  0  0
   12.5090    0.3530  -10.0750 N   0  0  0  0  0  2  0  0  0  0  0  0
   13.2450    0.0950   -8.9010 C   0  0  0  0  0  0  0  0  0  0  0  0
   14.4800   -0.1430   -8.9040 O   0  0  0  0  0  0  0  0  0  0  0  0
   12.4720    0.1400   -7.7250 N   0  0  0  0  0  2  0  0  0  0  0  0
   10.6170    1.9820   -9.9300 C   0  0  1  0  0  0  0  0  0  0  0  0
   10.4298   -0.2968   -7.7256 H   0  0  0  0  0  0  0  0  0  0  0  0
   10.5081   -0.1690  -10.2101 H   0  0  0  0  0  0  0  0  0  0  0  0
   12.2270    2.4170  -14.1880 H   0  0  0  0  0  0  0  0  0  0  0  0
   10.6390    1.9180  -14.3700 H   0  0  0  0  0  0  0  0  0  0  0  0
    9.5423    1.9155  -10.1550 H   0  0  0  0  0  0  0  0  0  0  0  0
   11.5200    4.4760  -14.1880 H   0  0  0  0  0  0  0  0  0  0  0  0
   12.1734    3.0864  -10.9504 H   0  0  0  0  0  0  0  0  0  0  0  0
   10.4453    3.4100  -11.5094 H   0  0  0  0  0  0  0  0  0  0  0  0
   12.3993    1.3260  -12.3678 H   0  0  0  0  0  0  0  0  0  0  0  0
   11.3841    2.1854   -6.8663 H   0  0  0  0  0  0  0  0  0  0  0  0
    9.6798    1.8557   -7.3126 H   0  0  0  0  0  0  0  0  0  0  0  0
   10.6064    0.9567  -12.4007 H   0  0  0  0  0  0  0  0  0  0  0  0
   10.8330    4.1050  -12.5499 H   0  0  0  0  0  0  0  0  0  0  0  0
  1  2  2  0
  2  3  1  0
  2  4  1  0
  4  5  1  0
  5  6  1  0
  6  7  1  0
  7  8  1  0
  8  9  1  0
  9 10  1  0
 10 11  1  0
 11 12  1  0
 12 13  1  0
 13 14  2  0
 13 15  1  0
 15 16  1  0
 16  8  1  0
 16 11  1  0
  4 17  1  0
  4 18  1  0
  5 19  1  0
  5 20  1  0
  6 21  1  0
  6 22  1  0
  7 23  1  0
  7 24  1  0
  8 25  1  6
 10 26  1  0
 10 27  1  0
 11 28  1  6
 16 29  1  6
M  CHG  4   3  -1   5   1  12  -1  15  -1
M  END
>  <UniqueID>  (3) 
2

>  <SMILES>  (3) 
O=C([O-])C[NH2+]CC[C@@H]1OC[C@@H]2[N-]C(=O)[N-][C@@H]21

>  <Energy>  (3) 
47.5623624453901

>  <Genealogy>  (3) 
O=C([O-])C[NH2+]CC[C@@H]1OC[C@@H]2[N-]C(=O)[N-][C@@H]21 (protonated)
O=C([O-])C[NH2+]CC[C@@H]1OC[C@@H]2[N-]C(=O)[N-][C@@H]21 (3D coordinates assigned)
O=C([O-])C[NH2+]CC[C@@H]1OC[C@@H]2[N-]C(=O)[N-][C@@H]21 (nonaromatic ring conformer: 47.5623624453901 kcal/mol)

>  <score_type>  (3) 
oracle

>  <energy>  (3) 
[-6.36, -6.33, -6.15, -5.82, -5.63, -5.81, -5.81, -5.8, -5.79, -5.79, -5.73, -5.73, -5.73, -5.4, -4.5, -5.01, -4.98, -4.95, -3.39, -3.03]

$$$$
GXTHWFWNSXFFOY-RFBDCVRPNA-L
     RDKit          3D

 29 30  0  0  0  0  0  0  0  0999 V2000
    8.7930    5.0630  -13.8670 O   0  0  0  0  0  0  0  0  0  0  0  0
    9.4420    4.0200  -14.1440 C   0  0  0  0  0  0  0  0  0  0  0  0
    8.8550    3.0310  -14.9240 O   0  0  0  0  0  1  0  0  0  0  0  0
   11.1110    0.4620   -8.1380 C   0  0  0  0  0  0  0  0  0  0  0  0
   11.2840    2.4340  -13.7310 N   0  0  0  0  0  4  0  0  0  0  0  0
   11.1240    0.5600   -9.6630 C   0  0  0  0  0  0  0  0  0  0  0  0
   11.1920    2.6610  -11.2070 C   0  0  0  0  0  0  0  0  0  0  0  0
   11.3810    1.7370  -12.4330 C   0  0  1  0  0  0  0  0  0  0  0  0
   10.8330    2.7490   -8.7670 O   0  0  0  0  0  0  0  0  0  0  0  0
   10.7170    1.8620   -7.6790 C   0  0  0  0  0  0  0  0  0  0  0  0
   10.8340    3.8340  -13.6160 C   0  0  2  0  0  0  0  0  0  0  0  0
   12.5090    0.3530  -10.0750 N   0  0  0  0  0  2  0  0  0  0  0  0
   13.2450    0.0950   -8.9010 C   0  0  0  0  0  0  0  0  0  0  0  0
   14.4800   -0.1430   -8.9040 O   0  0  0  0  0  0  0  0  0  0  0  0
   12.4720    0.1400   -7.7250 N   0  0  0  0  0  2  0  0  0  0  0  0
   10.6170    1.9820   -9.9300 C   0  0  1  0  0  0  0  0  0  0  0  0
   10.4298   -0.2968   -7.7256 H   0  0  0  0  0  0  0  0  0  0  0  0
   10.5081   -0.1690  -10.2101 H   0  0  0  0  0  0  0  0  0  0  0  0
   12.2270    2.4170  -14.1880 H   0  0  0  0  0  0  0  0  0  0  0  0
   10.6390    1.9180  -14.3700 H   0  0  0  0  0  0  0  0  0  0  0  0
    9.5423    1.9155  -10.1550 H   0  0  0  0  0  0  0  0  0  0  0  0
   11.5200    4.4760  -14.1880 H   0  0  0  0  0  0  0  0  0  0  0  0
   12.1734    3.0864  -10.9504 H   0  0  0  0  0  0  0  0  0  0  0  0
   10.4453    3.4100  -11.5094 H   0  0  0  0  0  0  0  0  0  0  0  0
   12.3993    1.3260  -12.3678 H   0  0  0  0  0  0  0  0  0  0  0  0
   11.3841    2.1854   -6.8663 H   0  0  0  0  0  0  0  0  0  0  0  0
    9.6798    1.8557   -7.3126 H   0  0  0  0  0  0  0  0  0  0  0  0
   10.6064    0.9567  -12.4007 H   0  0  0  0  0  0  0  0  0  0  0  0
   10.8330    4.1050  -12.5499 H   0  0  0  0  0  0  0  0  0  0  0  0
  1  2  2  0
  2  3  1  0
  2  4  1  0
  4  5  1  0
  5  6  1  0
  6  7  1  0
  7  8  1  0
  8  9  1  0
  9 10  1  0
 10 11  1  0
 11 12  1  0
 12 13  1  0
 13 14  2  0
 13 15  1  0
 15 16  1  0
 16  8  1  0
 16 11  1  0
  4 17  1  0
  4 18  1  0
  5 19  1  0
  5 20  1  0
  6 21  1  0
  6 22  1  0
  7 23  1  0
  7 24  1  0
  8 25  1  6
 10 26  1  0
 10 27  1  0
 11 28  1  6
 16 29  1  6
M  CHG  4   3  -1   5   1  12  -1  15  -1
M  END
>  <UniqueID>  (4) 
2

>  <SMILES>  (4) 
O=C([O-])C[NH2+]CC[C@@H]1OC[C@@H]2[N-]C(=O)[N-][C@@H]21

>  <Energy>  (4) 
47.5623624453901

>  <Genealogy>  (4) 
O=C([O-])C[NH2+]CC[C@@H]1OC[C@@H]2[N-]C(=O)[N-][C@@H]21 (protonated)
O=C([O-])C[NH2+]CC[C@@H]1OC[C@@H]2[N-]C(=O)[N-][C@@H]21 (3D coordinates assigned)
O=C([O-])C[NH2+]CC[C@@H]1OC[C@@H]2[N-]C(=O)[N-][C@@H]21 (nonaromatic ring conformer: 47.5623624453901 kcal/mol)

>  <score_type>  (4) 
oracle

>  <energy>  (4) 
[-6.36, -6.33, -6.15, -5.82, -5.63, -5.81, -5.81, -5.8, -5.79, -5.79, -5.73, -5.73, -5.73, -5.4, -4.5, -5.01, -4.98, -4.95, -3.39, -3.03]

$$$$
GXTHWFWNSXFFOY-RFBDCVRPNA-L
     RDKit          3D

 29 30  0  0  0  0  0  0  0  0999 V2000
    8.7930    5.0630  -13.8670 O   0  0  0  0  0  0  0  0  0  0  0  0
    9.4420    4.0200  -14.1440 C   0  0  0  0  0  0  0  0  0  0  0  0
    8.8550    3.0310  -14.9240 O   0  0  0  0  0  1  0  0  0  0  0  0
   11.1110    0.4620   -8.1380 C   0  0  0  0  0  0  0  0  0  0  0  0
   11.2840    2.4340  -13.7310 N   0  0  0  0  0  4  0  0  0  0  0  0
   11.1240    0.5600   -9.6630 C   0  0  0  0  0  0  0  0  0  0  0  0
   11.1920    2.6610  -11.2070 C   0  0  0  0  0  0  0  0  0  0  0  0
   11.3810    1.7370  -12.4330 C   0  0  1  0  0  0  0  0  0  0  0  0
   10.8330    2.7490   -8.7670 O   0  0  0  0  0  0  0  0  0  0  0  0
   10.7170    1.8620   -7.6790 C   0  0  0  0  0  0  0  0  0  0  0  0
   10.8340    3.8340  -13.6160 C   0  0  2  0  0  0  0  0  0  0  0  0
   12.5090    0.3530  -10.0750 N   0  0  0  0  0  2  0  0  0  0  0  0
   13.2450    0.0950   -8.9010 C   0  0  0  0  0  0  0  0  0  0  0  0
   14.4800   -0.1430   -8.9040 O   0  0  0  0  0  0  0  0  0  0  0  0
   12.4720    0.1400   -7.7250 N   0  0  0  0  0  2  0  0  0  0  0  0
   10.6170    1.9820   -9.9300 C   0  0  1  0  0  0  0  0  0  0  0  0
   10.4298   -0.2968   -7.7256 H   0  0  0  0  0  0  0  0  0  0  0  0
   10.5081   -0.1690  -10.2101 H   0  0  0  0  0  0  0  0  0  0  0  0
   12.2270    2.4170  -14.1880 H   0  0  0  0  0  0  0  0  0  0  0  0
   10.6390    1.9180  -14.3700 H   0  0  0  0  0  0  0  0  0  0  0  0
    9.5423    1.9155  -10.1550 H   0  0  0  0  0  0  0  0  0  0  0  0
   11.5200    4.4760  -14.1880 H   0  0  0  0  0  0  0  0  0  0  0  0
   12.1734    3.0864  -10.9504 H   0  0  0  0  0  0  0  0  0  0  0  0
   10.4453    3.4100  -11.5094 H   0  0  0  0  0  0  0  0  0  0  0  0
   12.3993    1.3260  -12.3678 H   0  0  0  0  0  0  0  0  0  0  0  0
   11.3841    2.1854   -6.8663 H   0  0  0  0  0  0  0  0  0  0  0  0
    9.6798    1.8557   -7.3126 H   0  0  0  0  0  0  0  0  0  0  0  0
   10.6064    0.9567  -12.4007 H   0  0  0  0  0  0  0  0  0  0  0  0
   10.8330    4.1050  -12.5499 H   0  0  0  0  0  0  0  0  0  0  0  0
  1  2  2  0
  2  3  1  0
  2  4  1  0
  4  5  1  0
  5  6  1  0
  6  7  1  0
  7  8  1  0
  8  9  1  0
  9 10  1  0
 10 11  1  0
 11 12  1  0
 12 13  1  0
 13 14  2  0
 13 15  1  0
 15 16  1  0
 16  8  1  0
 16 11  1  0
  4 17  1  0
  4 18  1  0
  5 19  1  0
  5 20  1  0
  6 21  1  0
  6 22  1  0
  7 23  1  0
  7 24  1  0
  8 25  1  6
 10 26  1  0
 10 27  1  0
 11 28  1  6
 16 29  1  6
M  CHG  4   3  -1   5   1  12  -1  15  -1
M  END
>  <UniqueID>  (5) 
2

>  <SMILES>  (5) 
O=C([O-])C[NH2+]CC[C@@H]1OC[C@@H]2[N-]C(=O)[N-][C@@H]21

>  <Energy>  (5) 
47.5623624453901

>  <Genealogy>  (5) 
O=C([O-])C[NH2+]CC[C@@H]1OC[C@@H]2[N-]C(=O)[N-][C@@H]21 (protonated)
O=C([O-])C[NH2+]CC[C@@H]1OC[C@@H]2[N-]C(=O)[N-][C@@H]21 (3D coordinates assigned)
O=C([O-])C[NH2+]CC[C@@H]1OC[C@@H]2[N-]C(=O)[N-][C@@H]21 (nonaromatic ring conformer: 47.5623624453901 kcal/mol)

>  <score_type>  (5) 
oracle

>  <energy>  (5) 
[-6.36, -6.33, -6.15, -5.82, -5.63, -5.81, -5.81, -5.8, -5.79, -5.79, -5.73, -5.73, -5.73, -5.4, -4.5, -5.01, -4.98, -4.95, -3.39, -3.03]

$$$$
GXTHWFWNSXFFOY-RFBDCVRPNA-L
     RDKit          3D

 29 30  0  0  0  0  0  0  0  0999 V2000
    8.7930    5.0630  -13.8670 O   0  0  0  0  0  0  0  0  0  0  0  0
    9.4420    4.0200  -14.1440 C   0  0  0  0  0  0  0  0  0  0  0  0
    8.8550    3.0310  -14.9240 O   0  0  0  0  0  1  0  0  0  0  0  0
   11.1110    0.4620   -8.1380 C   0  0  0  0  0  0  0  0  0  0  0  0
   11.2840    2.4340  -13.7310 N   0  0  0  0  0  4  0  0  0  0  0  0
   11.1240    0.5600   -9.6630 C   0  0  0  0  0  0  0  0  0  0  0  0
   11.1920    2.6610  -11.2070 C   0  0  0  0  0  0  0  0  0  0  0  0
   11.3810    1.7370  -12.4330 C   0  0  1  0  0  0  0  0  0  0  0  0
   10.8330    2.7490   -8.7670 O   0  0  0  0  0  0  0  0  0  0  0  0
   10.7170    1.8620   -7.6790 C   0  0  0  0  0  0  0  0  0  0  0  0
   10.8340    3.8340  -13.6160 C   0  0  2  0  0  0  0  0  0  0  0  0
   12.5090    0.3530  -10.0750 N   0  0  0  0  0  2  0  0  0  0  0  0
   13.2450    0.0950   -8.9010 C   0  0  0  0  0  0  0  0  0  0  0  0
   14.4800   -0.1430   -8.9040 O   0  0  0  0  0  0  0  0  0  0  0  0
   12.4720    0.1400   -7.7250 N   0  0  0  0  0  2  0  0  0  0  0  0
   10.6170    1.9820   -9.9300 C   0  0  1  0  0  0  0  0  0  0  0  0
   10.4298   -0.2968   -7.7256 H   0  0  0  0  0  0  0  0  0  0  0  0
   10.5081   -0.1690  -10.2101 H   0  0  0  0  0  0  0  0  0  0  0  0
   12.2270    2.4170  -14.1880 H   0  0  0  0  0  0  0  0  0  0  0  0
   10.6390    1.9180  -14.3700 H   0  0  0  0  0  0  0  0  0  0  0  0
    9.5423    1.9155  -10.1550 H   0  0  0  0  0  0  0  0  0  0  0  0
   11.5200    4.4760  -14.1880 H   0  0  0  0  0  0  0  0  0  0  0  0
   12.1734    3.0864  -10.9504 H   0  0  0  0  0  0  0  0  0  0  0  0
   10.4453    3.4100  -11.5094 H   0  0  0  0  0  0  0  0  0  0  0  0
   12.3993    1.3260  -12.3678 H   0  0  0  0  0  0  0  0  0  0  0  0
   11.3841    2.1854   -6.8663 H   0  0  0  0  0  0  0  0  0  0  0  0
    9.6798    1.8557   -7.3126 H   0  0  0  0  0  0  0  0  0  0  0  0
   10.6064    0.9567  -12.4007 H   0  0  0  0  0  0  0  0  0  0  0  0
   10.8330    4.1050  -12.5499 H   0  0  0  0  0  0  0  0  0  0  0  0
  1  2  2  0
  2  3  1  0
  2  4  1  0
  4  5  1  0
  5  6  1  0
  6  7  1  0
  7  8  1  0
  8  9  1  0
  9 10  1  0
 10 11  1  0
 11 12  1  0
 12 13  1  0
 13 14  2  0
 13 15  1  0
 15 16  1  0
 16  8  1  0
 16 11  1  0
  4 17  1  0
  4 18  1  0
  5 19  1  0
  5 20  1  0
  6 21  1  0
  6 22  1  0
  7 23  1  0
  7 24  1  0
  8 25  1  6
 10 26  1  0
 10 27  1  0
 11 28  1  6
 16 29  1  6
M  CHG  4   3  -1   5   1  12  -1  15  -1
M  END
>  <UniqueID>  (6) 
2

>  <SMILES>  (6) 
O=C([O-])C[NH2+]CC[C@@H]1OC[C@@H]2[N-]C(=O)[N-][C@@H]21

>  <Energy>  (6) 
47.5623624453901

>  <Genealogy>  (6) 
O=C([O-])C[NH2+]CC[C@@H]1OC[C@@H]2[N-]C(=O)[N-][C@@H]21 (protonated)
O=C([O-])C[NH2+]CC[C@@H]1OC[C@@H]2[N-]C(=O)[N-][C@@H]21 (3D coordinates assigned)
O=C([O-])C[NH2+]CC[C@@H]1OC[C@@H]2[N-]C(=O)[N-][C@@H]21 (nonaromatic ring conformer: 47.5623624453901 kcal/mol)

>  <score_type>  (6) 
oracle

>  <energy>  (6) 
[-6.36, -6.33, -6.15, -5.82, -5.63, -5.81, -5.81, -5.8, -5.79, -5.79, -5.73, -5.73, -5.73, -5.4, -4.5, -5.01, -4.98, -4.95, -3.39, -3.03]

$$$$
GXTHWFWNSXFFOY-RFBDCVRPNA-L
     RDKit          3D

 29 30  0  0  0  0  0  0  0  0999 V2000
    8.7930    5.0630  -13.8670 O   0  0  0  0  0  0  0  0  0  0  0  0
    9.4420    4.0200  -14.1440 C   0  0  0  0  0  0  0  0  0  0  0  0
    8.8550    3.0310  -14.9240 O   0  0  0  0  0  1  0  0  0  0  0  0
   11.1110    0.4620   -8.1380 C   0  0  0  0  0  0  0  0  0  0  0  0
   11.2840    2.4340  -13.7310 N   0  0  0  0  0  4  0  0  0  0  0  0
   11.1240    0.5600   -9.6630 C   0  0  0  0  0  0  0  0  0  0  0  0
   11.1920    2.6610  -11.2070 C   0  0  0  0  0  0  0  0  0  0  0  0
   11.3810    1.7370  -12.4330 C   0  0  1  0  0  0  0  0  0  0  0  0
   10.8330    2.7490   -8.7670 O   0  0  0  0  0  0  0  0  0  0  0  0
   10.7170    1.8620   -7.6790 C   0  0  0  0  0  0  0  0  0  0  0  0
   10.8340    3.8340  -13.6160 C   0  0  2  0  0  0  0  0  0  0  0  0
   12.5090    0.3530  -10.0750 N   0  0  0  0  0  2  0  0  0  0  0  0
   13.2450    0.0950   -8.9010 C   0  0  0  0  0  0  0  0  0  0  0  0
   14.4800   -0.1430   -8.9040 O   0  0  0  0  0  0  0  0  0  0  0  0
   12.4720    0.1400   -7.7250 N   0  0  0  0  0  2  0  0  0  0  0  0
   10.6170    1.9820   -9.9300 C   0  0  1  0  0  0  0  0  0  0  0  0
   10.4298   -0.2968   -7.7256 H   0  0  0  0  0  0  0  0  0  0  0  0
   10.5081   -0.1690  -10.2101 H   0  0  0  0  0  0  0  0  0  0  0  0
   12.2270    2.4170  -14.1880 H   0  0  0  0  0  0  0  0  0  0  0  0
   10.6390    1.9180  -14.3700 H   0  0  0  0  0  0  0  0  0  0  0  0
    9.5423    1.9155  -10.1550 H   0  0  0  0  0  0  0  0  0  0  0  0
   11.5200    4.4760  -14.1880 H   0  0  0  0  0  0  0  0  0  0  0  0
   12.1734    3.0864  -10.9504 H   0  0  0  0  0  0  0  0  0  0  0  0
   10.4453    3.4100  -11.5094 H   0  0  0  0  0  0  0  0  0  0  0  0
   12.3993    1.3260  -12.3678 H   0  0  0  0  0  0  0  0  0  0  0  0
   11.3841    2.1854   -6.8663 H   0  0  0  0  0  0  0  0  0  0  0  0
    9.6798    1.8557   -7.3126 H   0  0  0  0  0  0  0  0  0  0  0  0
   10.6064    0.9567  -12.4007 H   0  0  0  0  0  0  0  0  0  0  0  0
   10.8330    4.1050  -12.5499 H   0  0  0  0  0  0  0  0  0  0  0  0
  1  2  2  0
  2  3  1  0
  2  4  1  0
  4  5  1  0
  5  6  1  0
  6  7  1  0
  7  8  1  0
  8  9  1  0
  9 10  1  0
 10 11  1  0
 11 12  1  0
 12 13  1  0
 13 14  2  0
 13 15  1  0
 15 16  1  0
 16  8  1  0
 16 11  1  0
  4 17  1  0
  4 18  1  0
  5 19  1  0
  5 20  1  0
  6 21  1  0
  6 22  1  0
  7 23  1  0
  7 24  1  0
  8 25  1  6
 10 26  1  0
 10 27  1  0
 11 28  1  6
 16 29  1  6
M  CHG  4   3  -1   5   1  12  -1  15  -1
M  END
>  <UniqueID>  (7) 
2

>  <SMILES>  (7) 
O=C([O-])C[NH2+]CC[C@@H]1OC[C@@H]2[N-]C(=O)[N-][C@@H]21

>  <Energy>  (7) 
47.5623624453901

>  <Genealogy>  (7) 
O=C([O-])C[NH2+]CC[C@@H]1OC[C@@H]2[N-]C(=O)[N-][C@@H]21 (protonated)
O=C([O-])C[NH2+]CC[C@@H]1OC[C@@H]2[N-]C(=O)[N-][C@@H]21 (3D coordinates assigned)
O=C([O-])C[NH2+]CC[C@@H]1OC[C@@H]2[N-]C(=O)[N-][C@@H]21 (nonaromatic ring conformer: 47.5623624453901 kcal/mol)

>  <score_type>  (7) 
oracle

>  <energy>  (7) 
[-6.36, -6.33, -6.15, -5.82, -5.63, -5.81, -5.81, -5.8, -5.79, -5.79, -5.73, -5.73, -5.73, -5.4, -4.5, -5.01, -4.98, -4.95, -3.39, -3.03]

$$$$
GXTHWFWNSXFFOY-RFBDCVRPNA-L
     RDKit          3D

 29 30  0  0  0  0  0  0  0  0999 V2000
    8.7930    5.0630  -13.8670 O   0  0  0  0  0  0  0  0  0  0  0  0
    9.4420    4.0200  -14.1440 C   0  0  0  0  0  0  0  0  0  0  0  0
    8.8550    3.0310  -14.9240 O   0  0  0  0  0  1  0  0  0  0  0  0
   11.1110    0.4620   -8.1380 C   0  0  0  0  0  0  0  0  0  0  0  0
   11.2840    2.4340  -13.7310 N   0  0  0  0  0  4  0  0  0  0  0  0
   11.1240    0.5600   -9.6630 C   0  0  0  0  0  0  0  0  0  0  0  0
   11.1920    2.6610  -11.2070 C   0  0  0  0  0  0  0  0  0  0  0  0
   11.3810    1.7370  -12.4330 C   0  0  1  0  0  0  0  0  0  0  0  0
   10.8330    2.7490   -8.7670 O   0  0  0  0  0  0  0  0  0  0  0  0
   10.7170    1.8620   -7.6790 C   0  0  0  0  0  0  0  0  0  0  0  0
   10.8340    3.8340  -13.6160 C   0  0  2  0  0  0  0  0  0  0  0  0
   12.5090    0.3530  -10.0750 N   0  0  0  0  0  2  0  0  0  0  0  0
   13.2450    0.0950   -8.9010 C   0  0  0  0  0  0  0  0  0  0  0  0
   14.4800   -0.1430   -8.9040 O   0  0  0  0  0  0  0  0  0  0  0  0
   12.4720    0.1400   -7.7250 N   0  0  0  0  0  2  0  0  0  0  0  0
   10.6170    1.9820   -9.9300 C   0  0  1  0  0  0  0  0  0  0  0  0
   10.4298   -0.2968   -7.7256 H   0  0  0  0  0  0  0  0  0  0  0  0
   10.5081   -0.1690  -10.2101 H   0  0  0  0  0  0  0  0  0  0  0  0
   12.2270    2.4170  -14.1880 H   0  0  0  0  0  0  0  0  0  0  0  0
   10.6390    1.9180  -14.3700 H   0  0  0  0  0  0  0  0  0  0  0  0
    9.5423    1.9155  -10.1550 H   0  0  0  0  0  0  0  0  0  0  0  0
   11.5200    4.4760  -14.1880 H   0  0  0  0  0  0  0  0  0  0  0  0
   12.1734    3.0864  -10.9504 H   0  0  0  0  0  0  0  0  0  0  0  0
   10.4453    3.4100  -11.5094 H   0  0  0  0  0  0  0  0  0  0  0  0
   12.3993    1.3260  -12.3678 H   0  0  0  0  0  0  0  0  0  0  0  0
   11.3841    2.1854   -6.8663 H   0  0  0  0  0  0  0  0  0  0  0  0
    9.6798    1.8557   -7.3126 H   0  0  0  0  0  0  0  0  0  0  0  0
   10.6064    0.9567  -12.4007 H   0  0  0  0  0  0  0  0  0  0  0  0
   10.8330    4.1050  -12.5499 H   0  0  0  0  0  0  0  0  0  0  0  0
  1  2  2  0
  2  3  1  0
  2  4  1  0
  4  5  1  0
  5  6  1  0
  6  7  1  0
  7  8  1  0
  8  9  1  0
  9 10  1  0
 10 11  1  0
 11 12  1  0
 12 13  1  0
 13 14  2  0
 13 15  1  0
 15 16  1  0
 16  8  1  0
 16 11  1  0
  4 17  1  0
  4 18  1  0
  5 19  1  0
  5 20  1  0
  6 21  1  0
  6 22  1  0
  7 23  1  0
  7 24  1  0
  8 25  1  6
 10 26  1  0
 10 27  1  0
 11 28  1  6
 16 29  1  6
M  CHG  4   3  -1   5   1  12  -1  15  -1
M  END
>  <UniqueID>  (8) 
2

>  <SMILES>  (8) 
O=C([O-])C[NH2+]CC[C@@H]1OC[C@@H]2[N-]C(=O)[N-][C@@H]21

>  <Energy>  (8) 
47.5623624453901

>  <Genealogy>  (8) 
O=C([O-])C[NH2+]CC[C@@H]1OC[C@@H]2[N-]C(=O)[N-][C@@H]21 (protonated)
O=C([O-])C[NH2+]CC[C@@H]1OC[C@@H]2[N-]C(=O)[N-][C@@H]21 (3D coordinates assigned)
O=C([O-])C[NH2+]CC[C@@H]1OC[C@@H]2[N-]C(=O)[N-][C@@H]21 (nonaromatic ring conformer: 47.5623624453901 kcal/mol)

>  <score_type>  (8) 
oracle

>  <energy>  (8) 
[-6.36, -6.33, -6.15, -5.82, -5.63, -5.81, -5.81, -5.8, -5.79, -5.79, -5.73, -5.73, -5.73, -5.4, -4.5, -5.01, -4.98, -4.95, -3.39, -3.03]

$$$$
GXTHWFWNSXFFOY-RFBDCVRPNA-L
     RDKit          3D

 29 30  0  0  0  0  0  0  0  0999 V2000
    8.7930    5.0630  -13.8670 O   0  0  0  0  0  0  0  0  0  0  0  0
    9.4420    4.0200  -14.1440 C   0  0  0  0  0  0  0  0  0  0  0  0
    8.8550    3.0310  -14.9240 O   0  0  0  0  0  1  0  0  0  0  0  0
   11.1110    0.4620   -8.1380 C   0  0  0  0  0  0  0  0  0  0  0  0
   11.2840    2.4340  -13.7310 N   0  0  0  0  0  4  0  0  0  0  0  0
   11.1240    0.5600   -9.6630 C   0  0  0  0  0  0  0  0  0  0  0  0
   11.1920    2.6610  -11.2070 C   0  0  0  0  0  0  0  0  0  0  0  0
   11.3810    1.7370  -12.4330 C   0  0  1  0  0  0  0  0  0  0  0  0
   10.8330    2.7490   -8.7670 O   0  0  0  0  0  0  0  0  0  0  0  0
   10.7170    1.8620   -7.6790 C   0  0  0  0  0  0  0  0  0  0  0  0
   10.8340    3.8340  -13.6160 C   0  0  2  0  0  0  0  0  0  0  0  0
   12.5090    0.3530  -10.0750 N   0  0  0  0  0  2  0  0  0  0  0  0
   13.2450    0.0950   -8.9010 C   0  0  0  0  0  0  0  0  0  0  0  0
   14.4800   -0.1430   -8.9040 O   0  0  0  0  0  0  0  0  0  0  0  0
   12.4720    0.1400   -7.7250 N   0  0  0  0  0  2  0  0  0  0  0  0
   10.6170    1.9820   -9.9300 C   0  0  1  0  0  0  0  0  0  0  0  0
   10.4298   -0.2968   -7.7256 H   0  0  0  0  0  0  0  0  0  0  0  0
   10.5081   -0.1690  -10.2101 H   0  0  0  0  0  0  0  0  0  0  0  0
   12.2270    2.4170  -14.1880 H   0  0  0  0  0  0  0  0  0  0  0  0
   10.6390    1.9180  -14.3700 H   0  0  0  0  0  0  0  0  0  0  0  0
    9.5423    1.9155  -10.1550 H   0  0  0  0  0  0  0  0  0  0  0  0
   11.5200    4.4760  -14.1880 H   0  0  0  0  0  0  0  0  0  0  0  0
   12.1734    3.0864  -10.9504 H   0  0  0  0  0  0  0  0  0  0  0  0
   10.4453    3.4100  -11.5094 H   0  0  0  0  0  0  0  0  0  0  0  0
   12.3993    1.3260  -12.3678 H   0  0  0  0  0  0  0  0  0  0  0  0
   11.3841    2.1854   -6.8663 H   0  0  0  0  0  0  0  0  0  0  0  0
    9.6798    1.8557   -7.3126 H   0  0  0  0  0  0  0  0  0  0  0  0
   10.6064    0.9567  -12.4007 H   0  0  0  0  0  0  0  0  0  0  0  0
   10.8330    4.1050  -12.5499 H   0  0  0  0  0  0  0  0  0  0  0  0
  1  2  2  0
  2  3  1  0
  2  4  1  0
  4  5  1  0
  5  6  1  0
  6  7  1  0
  7  8  1  0
  8  9  1  0
  9 10  1  0
 10 11  1  0
 11 12  1  0
 12 13  1  0
 13 14  2  0
 13 15  1  0
 15 16  1  0
 16  8  1  0
 16 11  1  0
  4 17  1  0
  4 18  1  0
  5 19  1  0
  5 20  1  0
  6 21  1  0
  6 22  1  0
  7 23  1  0
  7 24  1  0
  8 25  1  6
 10 26  1  0
 10 27  1  0
 11 28  1  6
 16 29  1  6
M  CHG  4   3  -1   5   1  12  -1  15  -1
M  END
>  <UniqueID>  (9) 
2

>  <SMILES>  (9) 
O=C([O-])C[NH2+]CC[C@@H]1OC[C@@H]2[N-]C(=O)[N-][C@@H]21

>  <Energy>  (9) 
47.5623624453901

>  <Genealogy>  (9) 
O=C([O-])C[NH2+]CC[C@@H]1OC[C@@H]2[N-]C(=O)[N-][C@@H]21 (protonated)
O=C([O-])C[NH2+]CC[C@@H]1OC[C@@H]2[N-]C(=O)[N-][C@@H]21 (3D coordinates assigned)
O=C([O-])C[NH2+]CC[C@@H]1OC[C@@H]2[N-]C(=O)[N-][C@@H]21 (nonaromatic ring conformer: 47.5623624453901 kcal/mol)

>  <score_type>  (9) 
oracle

>  <energy>  (9) 
[-6.36, -6.33, -6.15, -5.82, -5.63, -5.81, -5.81, -5.8, -5.79, -5.79, -5.73, -5.73, -5.73, -5.4, -4.5, -5.01, -4.98, -4.95, -3.39, -3.03]

$$$$
GXTHWFWNSXFFOY-RFBDCVRPNA-L
     RDKit          3D

 29 30  0  0  0  0  0  0  0  0999 V2000
    8.7930    5.0630  -13.8670 O   0  0  0  0  0  0  0  0  0  0  0  0
    9.4420    4.0200  -14.1440 C   0  0  0  0  0  0  0  0  0  0  0  0
    8.8550    3.0310  -14.9240 O   0  0  0  0  0  1  0  0  0  0  0  0
   11.1110    0.4620   -8.1380 C   0  0  0  0  0  0  0  0  0  0  0  0
   11.2840    2.4340  -13.7310 N   0  0  0  0  0  4  0  0  0  0  0  0
   11.1240    0.5600   -9.6630 C   0  0  0  0  0  0  0  0  0  0  0  0
   11.1920    2.6610  -11.2070 C   0  0  0  0  0  0  0  0  0  0  0  0
   11.3810    1.7370  -12.4330 C   0  0  1  0  0  0  0  0  0  0  0  0
   10.8330    2.7490   -8.7670 O   0  0  0  0  0  0  0  0  0  0  0  0
   10.7170    1.8620   -7.6790 C   0  0  0  0  0  0  0  0  0  0  0  0
   10.8340    3.8340  -13.6160 C   0  0  2  0  0  0  0  0  0  0  0  0
   12.5090    0.3530  -10.0750 N   0  0  0  0  0  2  0  0  0  0  0  0
   13.2450    0.0950   -8.9010 C   0  0  0  0  0  0  0  0  0  0  0  0
   14.4800   -0.1430   -8.9040 O   0  0  0  0  0  0  0  0  0  0  0  0
   12.4720    0.1400   -7.7250 N   0  0  0  0  0  2  0  0  0  0  0  0
   10.6170    1.9820   -9.9300 C   0  0  1  0  0  0  0  0  0  0  0  0
   10.4298   -0.2968   -7.7256 H   0  0  0  0  0  0  0  0  0  0  0  0
   10.5081   -0.1690  -10.2101 H   0  0  0  0  0  0  0  0  0  0  0  0
   12.2270    2.4170  -14.1880 H   0  0  0  0  0  0  0  0  0  0  0  0
   10.6390    1.9180  -14.3700 H   0  0  0  0  0  0  0  0  0  0  0  0
    9.5423    1.9155  -10.1550 H   0  0  0  0  0  0  0  0  0  0  0  0
   11.5200    4.4760  -14.1880 H   0  0  0  0  0  0  0  0  0  0  0  0
   12.1734    3.0864  -10.9504 H   0  0  0  0  0  0  0  0  0  0  0  0
   10.4453    3.4100  -11.5094 H   0  0  0  0  0  0  0  0  0  0  0  0
   12.3993    1.3260  -12.3678 H   0  0  0  0  0  0  0  0  0  0  0  0
   11.3841    2.1854   -6.8663 H   0  0  0  0  0  0  0  0  0  0  0  0
    9.6798    1.8557   -7.3126 H   0  0  0  0  0  0  0  0  0  0  0  0
   10.6064    0.9567  -12.4007 H   0  0  0  0  0  0  0  0  0  0  0  0
   10.8330    4.1050  -12.5499 H   0  0  0  0  0  0  0  0  0  0  0  0
  1  2  2  0
  2  3  1  0
  2  4  1  0
  4  5  1  0
  5  6  1  0
  6  7  1  0
  7  8  1  0
  8  9  1  0
  9 10  1  0
 10 11  1  0
 11 12  1  0
 12 13  1  0
 13 14  2  0
 13 15  1  0
 15 16  1  0
 16  8  1  0
 16 11  1  0
  4 17  1  0
  4 18  1  0
  5 19  1  0
  5 20  1  0
  6 21  1  0
  6 22  1  0
  7 23  1  0
  7 24  1  0
  8 25  1  6
 10 26  1  0
 10 27  1  0
 11 28  1  6
 16 29  1  6
M  CHG  4   3  -1   5   1  12  -1  15  -1
M  END
>  <UniqueID>  (10) 
2

>  <SMILES>  (10) 
O=C([O-])C[NH2+]CC[C@@H]1OC[C@@H]2[N-]C(=O)[N-][C@@H]21

>  <Energy>  (10) 
47.5623624453901

>  <Genealogy>  (10) 
O=C([O-])C[NH2+]CC[C@@H]1OC[C@@H]2[N-]C(=O)[N-][C@@H]21 (protonated)
O=C([O-])C[NH2+]CC[C@@H]1OC[C@@H]2[N-]C(=O)[N-][C@@H]21 (3D coordinates assigned)
O=C([O-])C[NH2+]CC[C@@H]1OC[C@@H]2[N-]C(=O)[N-][C@@H]21 (nonaromatic ring conformer: 47.5623624453901 kcal/mol)

>  <score_type>  (10) 
oracle

>  <energy>  (10) 
[-6.36, -6.33, -6.15, -5.82, -5.63, -5.81, -5.81, -5.8, -5.79, -5.79, -5.73, -5.73, -5.73, -5.4, -4.5, -5.01, -4.98, -4.95, -3.39, -3.03]

$$$$
GXTHWFWNSXFFOY-RFBDCVRPNA-L
     RDKit          3D

 29 30  0  0  0  0  0  0  0  0999 V2000
    8.7930    5.0630  -13.8670 O   0  0  0  0  0  0  0  0  0  0  0  0
    9.4420    4.0200  -14.1440 C   0  0  0  0  0  0  0  0  0  0  0  0
    8.8550    3.0310  -14.9240 O   0  0  0  0  0  1  0  0  0  0  0  0
   11.1110    0.4620   -8.1380 C   0  0  0  0  0  0  0  0  0  0  0  0
   11.2840    2.4340  -13.7310 N   0  0  0  0  0  4  0  0  0  0  0  0
   11.1240    0.5600   -9.6630 C   0  0  0  0  0  0  0  0  0  0  0  0
   11.1920    2.6610  -11.2070 C   0  0  0  0  0  0  0  0  0  0  0  0
   11.3810    1.7370  -12.4330 C   0  0  1  0  0  0  0  0  0  0  0  0
   10.8330    2.7490   -8.7670 O   0  0  0  0  0  0  0  0  0  0  0  0
   10.7170    1.8620   -7.6790 C   0  0  0  0  0  0  0  0  0  0  0  0
   10.8340    3.8340  -13.6160 C   0  0  2  0  0  0  0  0  0  0  0  0
   12.5090    0.3530  -10.0750 N   0  0  0  0  0  2  0  0  0  0  0  0
   13.2450    0.0950   -8.9010 C   0  0  0  0  0  0  0  0  0  0  0  0
   14.4800   -0.1430   -8.9040 O   0  0  0  0  0  0  0  0  0  0  0  0
   12.4720    0.1400   -7.7250 N   0  0  0  0  0  2  0  0  0  0  0  0
   10.6170    1.9820   -9.9300 C   0  0  1  0  0  0  0  0  0  0  0  0
   10.4298   -0.2968   -7.7256 H   0  0  0  0  0  0  0  0  0  0  0  0
   10.5081   -0.1690  -10.2101 H   0  0  0  0  0  0  0  0  0  0  0  0
   12.2270    2.4170  -14.1880 H   0  0  0  0  0  0  0  0  0  0  0  0
   10.6390    1.9180  -14.3700 H   0  0  0  0  0  0  0  0  0  0  0  0
    9.5423    1.9155  -10.1550 H   0  0  0  0  0  0  0  0  0  0  0  0
   11.5200    4.4760  -14.1880 H   0  0  0  0  0  0  0  0  0  0  0  0
   12.1734    3.0864  -10.9504 H   0  0  0  0  0  0  0  0  0  0  0  0
   10.4453    3.4100  -11.5094 H   0  0  0  0  0  0  0  0  0  0  0  0
   12.3993    1.3260  -12.3678 H   0  0  0  0  0  0  0  0  0  0  0  0
   11.3841    2.1854   -6.8663 H   0  0  0  0  0  0  0  0  0  0  0  0
    9.6798    1.8557   -7.3126 H   0  0  0  0  0  0  0  0  0  0  0  0
   10.6064    0.9567  -12.4007 H   0  0  0  0  0  0  0  0  0  0  0  0
   10.8330    4.1050  -12.5499 H   0  0  0  0  0  0  0  0  0  0  0  0
  1  2  2  0
  2  3  1  0
  2  4  1  0
  4  5  1  0
  5  6  1  0
  6  7  1  0
  7  8  1  0
  8  9  1  0
  9 10  1  0
 10 11  1  0
 11 12  1  0
 12 13  1  0
 13 14  2  0
 13 15  1  0
 15 16  1  0
 16  8  1  0
 16 11  1  0
  4 17  1  0
  4 18  1  0
  5 19  1  0
  5 20  1  0
  6 21  1  0
  6 22  1  0
  7 23  1  0
  7 24  1  0
  8 25  1  6
 10 26  1  0
 10 27  1  0
 11 28  1  6
 16 29  1  6
M  CHG  4   3  -1   5   1  12  -1  15  -1
M  END
>  <UniqueID>  (11) 
2

>  <SMILES>  (11) 
O=C([O-])C[NH2+]CC[C@@H]1OC[C@@H]2[N-]C(=O)[N-][C@@H]21

>  <Energy>  (11) 
47.5623624453901

>  <Genealogy>  (11) 
O=C([O-])C[NH2+]CC[C@@H]1OC[C@@H]2[N-]C(=O)[N-][C@@H]21 (protonated)
O=C([O-])C[NH2+]CC[C@@H]1OC[C@@H]2[N-]C(=O)[N-][C@@H]21 (3D coordinates assigned)
O=C([O-])C[NH2+]CC[C@@H]1OC[C@@H]2[N-]C(=O)[N-][C@@H]21 (nonaromatic ring conformer: 47.5623624453901 kcal/mol)

>  <score_type>  (11) 
oracle

>  <energy>  (11) 
[-6.36, -6.33, -6.15, -5.82, -5.63, -5.81, -5.81, -5.8, -5.79, -5.79, -5.73, -5.73, -5.73, -5.4, -4.5, -5.01, -4.98, -4.95, -3.39, -3.03]

$$$$
GXTHWFWNSXFFOY-RFBDCVRPNA-L
     RDKit          3D

 29 30  0  0  0  0  0  0  0  0999 V2000
    8.7930    5.0630  -13.8670 O   0  0  0  0  0  0  0  0  0  0  0  0
    9.4420    4.0200  -14.1440 C   0  0  0  0  0  0  0  0  0  0  0  0
    8.8550    3.0310  -14.9240 O   0  0  0  0  0  1  0  0  0  0  0  0
   11.1110    0.4620   -8.1380 C   0  0  0  0  0  0  0  0  0  0  0  0
   11.2840    2.4340  -13.7310 N   0  0  0  0  0  4  0  0  0  0  0  0
   11.1240    0.5600   -9.6630 C   0  0  0  0  0  0  0  0  0  0  0  0
   11.1920    2.6610  -11.2070 C   0  0  0  0  0  0  0  0  0  0  0  0
   11.3810    1.7370  -12.4330 C   0  0  1  0  0  0  0  0  0  0  0  0
   10.8330    2.7490   -8.7670 O   0  0  0  0  0  0  0  0  0  0  0  0
   10.7170    1.8620   -7.6790 C   0  0  0  0  0  0  0  0  0  0  0  0
   10.8340    3.8340  -13.6160 C   0  0  2  0  0  0  0  0  0  0  0  0
   12.5090    0.3530  -10.0750 N   0  0  0  0  0  2  0  0  0  0  0  0
   13.2450    0.0950   -8.9010 C   0  0  0  0  0  0  0  0  0  0  0  0
   14.4800   -0.1430   -8.9040 O   0  0  0  0  0  0  0  0  0  0  0  0
   12.4720    0.1400   -7.7250 N   0  0  0  0  0  2  0  0  0  0  0  0
   10.6170    1.9820   -9.9300 C   0  0  1  0  0  0  0  0  0  0  0  0
   10.4298   -0.2968   -7.7256 H   0  0  0  0  0  0  0  0  0  0  0  0
   10.5081   -0.1690  -10.2101 H   0  0  0  0  0  0  0  0  0  0  0  0
   12.2270    2.4170  -14.1880 H   0  0  0  0  0  0  0  0  0  0  0  0
   10.6390    1.9180  -14.3700 H   0  0  0  0  0  0  0  0  0  0  0  0
    9.5423    1.9155  -10.1550 H   0  0  0  0  0  0  0  0  0  0  0  0
   11.5200    4.4760  -14.1880 H   0  0  0  0  0  0  0  0  0  0  0  0
   12.1734    3.0864  -10.9504 H   0  0  0  0  0  0  0  0  0  0  0  0
   10.4453    3.4100  -11.5094 H   0  0  0  0  0  0  0  0  0  0  0  0
   12.3993    1.3260  -12.3678 H   0  0  0  0  0  0  0  0  0  0  0  0
   11.3841    2.1854   -6.8663 H   0  0  0  0  0  0  0  0  0  0  0  0
    9.6798    1.8557   -7.3126 H   0  0  0  0  0  0  0  0  0  0  0  0
   10.6064    0.9567  -12.4007 H   0  0  0  0  0  0  0  0  0  0  0  0
   10.8330    4.1050  -12.5499 H   0  0  0  0  0  0  0  0  0  0  0  0
  1  2  2  0
  2  3  1  0
  2  4  1  0
  4  5  1  0
  5  6  1  0
  6  7  1  0
  7  8  1  0
  8  9  1  0
  9 10  1  0
 10 11  1  0
 11 12  1  0
 12 13  1  0
 13 14  2  0
 13 15  1  0
 15 16  1  0
 16  8  1  0
 16 11  1  0
  4 17  1  0
  4 18  1  0
  5 19  1  0
  5 20  1  0
  6 21  1  0
  6 22  1  0
  7 23  1  0
  7 24  1  0
  8 25  1  6
 10 26  1  0
 10 27  1  0
 11 28  1  6
 16 29  1  6
M  CHG  4   3  -1   5   1  12  -1  15  -1
M  END
>  <UniqueID>  (12) 
2

>  <SMILES>  (12) 
O=C([O-])C[NH2+]CC[C@@H]1OC[C@@H]2[N-]C(=O)[N-][C@@H]21

>  <Energy>  (12) 
47.5623624453901

>  <Genealogy>  (12) 
O=C([O-])C[NH2+]CC[C@@H]1OC[C@@H]2[N-]C(=O)[N-][C@@H]21 (protonated)
O=C([O-])C[NH2+]CC[C@@H]1OC[C@@H]2[N-]C(=O)[N-][C@@H]21 (3D coordinates assigned)
O=C([O-])C[NH2+]CC[C@@H]1OC[C@@H]2[N-]C(=O)[N-][C@@H]21 (nonaromatic ring conformer: 47.5623624453901 kcal/mol)

>  <score_type>  (12) 
oracle

>  <energy>  (12) 
[-6.36, -6.33, -6.15, -5.82, -5.63, -5.81, -5.81, -5.8, -5.79, -5.79, -5.73, -5.73, -5.73, -5.4, -4.5, -5.01, -4.98, -4.95, -3.39, -3.03]

$$$$
GXTHWFWNSXFFOY-RFBDCVRPNA-L
     RDKit          3D

 29 30  0  0  0  0  0  0  0  0999 V2000
    8.7930    5.0630  -13.8670 O   0  0  0  0  0  0  0  0  0  0  0  0
    9.4420    4.0200  -14.1440 C   0  0  0  0  0  0  0  0  0  0  0  0
    8.8550    3.0310  -14.9240 O   0  0  0  0  0  1  0  0  0  0  0  0
   11.1110    0.4620   -8.1380 C   0  0  0  0  0  0  0  0  0  0  0  0
   11.2840    2.4340  -13.7310 N   0  0  0  0  0  4  0  0  0  0  0  0
   11.1240    0.5600   -9.6630 C   0  0  0  0  0  0  0  0  0  0  0  0
   11.1920    2.6610  -11.2070 C   0  0  0  0  0  0  0  0  0  0  0  0
   11.3810    1.7370  -12.4330 C   0  0  1  0  0  0  0  0  0  0  0  0
   10.8330    2.7490   -8.7670 O   0  0  0  0  0  0  0  0  0  0  0  0
   10.7170    1.8620   -7.6790 C   0  0  0  0  0  0  0  0  0  0  0  0
   10.8340    3.8340  -13.6160 C   0  0  2  0  0  0  0  0  0  0  0  0
   12.5090    0.3530  -10.0750 N   0  0  0  0  0  2  0  0  0  0  0  0
   13.2450    0.0950   -8.9010 C   0  0  0  0  0  0  0  0  0  0  0  0
   14.4800   -0.1430   -8.9040 O   0  0  0  0  0  0  0  0  0  0  0  0
   12.4720    0.1400   -7.7250 N   0  0  0  0  0  2  0  0  0  0  0  0
   10.6170    1.9820   -9.9300 C   0  0  1  0  0  0  0  0  0  0  0  0
   10.4298   -0.2968   -7.7256 H   0  0  0  0  0  0  0  0  0  0  0  0
   10.5081   -0.1690  -10.2101 H   0  0  0  0  0  0  0  0  0  0  0  0
   12.2270    2.4170  -14.1880 H   0  0  0  0  0  0  0  0  0  0  0  0
   10.6390    1.9180  -14.3700 H   0  0  0  0  0  0  0  0  0  0  0  0
    9.5423    1.9155  -10.1550 H   0  0  0  0  0  0  0  0  0  0  0  0
   11.5200    4.4760  -14.1880 H   0  0  0  0  0  0  0  0  0  0  0  0
   12.1734    3.0864  -10.9504 H   0  0  0  0  0  0  0  0  0  0  0  0
   10.4453    3.4100  -11.5094 H   0  0  0  0  0  0  0  0  0  0  0  0
   12.3993    1.3260  -12.3678 H   0  0  0  0  0  0  0  0  0  0  0  0
   11.3841    2.1854   -6.8663 H   0  0  0  0  0  0  0  0  0  0  0  0
    9.6798    1.8557   -7.3126 H   0  0  0  0  0  0  0  0  0  0  0  0
   10.6064    0.9567  -12.4007 H   0  0  0  0  0  0  0  0  0  0  0  0
   10.8330    4.1050  -12.5499 H   0  0  0  0  0  0  0  0  0  0  0  0
  1  2  2  0
  2  3  1  0
  2  4  1  0
  4  5  1  0
  5  6  1  0
  6  7  1  0
  7  8  1  0
  8  9  1  0
  9 10  1  0
 10 11  1  0
 11 12  1  0
 12 13  1  0
 13 14  2  0
 13 15  1  0
 15 16  1  0
 16  8  1  0
 16 11  1  0
  4 17  1  0
  4 18  1  0
  5 19  1  0
  5 20  1  0
  6 21  1  0
  6 22  1  0
  7 23  1  0
  7 24  1  0
  8 25  1  6
 10 26  1  0
 10 27  1  0
 11 28  1  6
 16 29  1  6
M  CHG  4   3  -1   5   1  12  -1  15  -1
M  END
>  <UniqueID>  (13) 
2

>  <SMILES>  (13) 
O=C([O-])C[NH2+]CC[C@@H]1OC[C@@H]2[N-]C(=O)[N-][C@@H]21

>  <Energy>  (13) 
47.5623624453901

>  <Genealogy>  (13) 
O=C([O-])C[NH2+]CC[C@@H]1OC[C@@H]2[N-]C(=O)[N-][C@@H]21 (protonated)
O=C([O-])C[NH2+]CC[C@@H]1OC[C@@H]2[N-]C(=O)[N-][C@@H]21 (3D coordinates assigned)
O=C([O-])C[NH2+]CC[C@@H]1OC[C@@H]2[N-]C(=O)[N-][C@@H]21 (nonaromatic ring conformer: 47.5623624453901 kcal/mol)

>  <score_type>  (13) 
oracle

>  <energy>  (13) 
[-6.36, -6.33, -6.15, -5.82, -5.63, -5.81, -5.81, -5.8, -5.79, -5.79, -5.73, -5.73, -5.73, -5.4, -4.5, -5.01, -4.98, -4.95, -3.39, -3.03]

$$$$
GXTHWFWNSXFFOY-RFBDCVRPNA-L
     RDKit          3D

 29 30  0  0  0  0  0  0  0  0999 V2000
    8.7930    5.0630  -13.8670 O   0  0  0  0  0  0  0  0  0  0  0  0
    9.4420    4.0200  -14.1440 C   0  0  0  0  0  0  0  0  0  0  0  0
    8.8550    3.0310  -14.9240 O   0  0  0  0  0  1  0  0  0  0  0  0
   11.1110    0.4620   -8.1380 C   0  0  0  0  0  0  0  0  0  0  0  0
   11.2840    2.4340  -13.7310 N   0  0  0  0  0  4  0  0  0  0  0  0
   11.1240    0.5600   -9.6630 C   0  0  0  0  0  0  0  0  0  0  0  0
   11.1920    2.6610  -11.2070 C   0  0  0  0  0  0  0  0  0  0  0  0
   11.3810    1.7370  -12.4330 C   0  0  1  0  0  0  0  0  0  0  0  0
   10.8330    2.7490   -8.7670 O   0  0  0  0  0  0  0  0  0  0  0  0
   10.7170    1.8620   -7.6790 C   0  0  0  0  0  0  0  0  0  0  0  0
   10.8340    3.8340  -13.6160 C   0  0  2  0  0  0  0  0  0  0  0  0
   12.5090    0.3530  -10.0750 N   0  0  0  0  0  2  0  0  0  0  0  0
   13.2450    0.0950   -8.9010 C   0  0  0  0  0  0  0  0  0  0  0  0
   14.4800   -0.1430   -8.9040 O   0  0  0  0  0  0  0  0  0  0  0  0
   12.4720    0.1400   -7.7250 N   0  0  0  0  0  2  0  0  0  0  0  0
   10.6170    1.9820   -9.9300 C   0  0  1  0  0  0  0  0  0  0  0  0
   10.4298   -0.2968   -7.7256 H   0  0  0  0  0  0  0  0  0  0  0  0
   10.5081   -0.1690  -10.2101 H   0  0  0  0  0  0  0  0  0  0  0  0
   12.2270    2.4170  -14.1880 H   0  0  0  0  0  0  0  0  0  0  0  0
   10.6390    1.9180  -14.3700 H   0  0  0  0  0  0  0  0  0  0  0  0
    9.5423    1.9155  -10.1550 H   0  0  0  0  0  0  0  0  0  0  0  0
   11.5200    4.4760  -14.1880 H   0  0  0  0  0  0  0  0  0  0  0  0
   12.1734    3.0864  -10.9504 H   0  0  0  0  0  0  0  0  0  0  0  0
   10.4453    3.4100  -11.5094 H   0  0  0  0  0  0  0  0  0  0  0  0
   12.3993    1.3260  -12.3678 H   0  0  0  0  0  0  0  0  0  0  0  0
   11.3841    2.1854   -6.8663 H   0  0  0  0  0  0  0  0  0  0  0  0
    9.6798    1.8557   -7.3126 H   0  0  0  0  0  0  0  0  0  0  0  0
   10.6064    0.9567  -12.4007 H   0  0  0  0  0  0  0  0  0  0  0  0
   10.8330    4.1050  -12.5499 H   0  0  0  0  0  0  0  0  0  0  0  0
  1  2  2  0
  2  3  1  0
  2  4  1  0
  4  5  1  0
  5  6  1  0
  6  7  1  0
  7  8  1  0
  8  9  1  0
  9 10  1  0
 10 11  1  0
 11 12  1  0
 12 13  1  0
 13 14  2  0
 13 15  1  0
 15 16  1  0
 16  8  1  0
 16 11  1  0
  4 17  1  0
  4 18  1  0
  5 19  1  0
  5 20  1  0
  6 21  1  0
  6 22  1  0
  7 23  1  0
  7 24  1  0
  8 25  1  6
 10 26  1  0
 10 27  1  0
 11 28  1  6
 16 29  1  6
M  CHG  4   3  -1   5   1  12  -1  15  -1
M  END
>  <UniqueID>  (14) 
2

>  <SMILES>  (14) 
O=C([O-])C[NH2+]CC[C@@H]1OC[C@@H]2[N-]C(=O)[N-][C@@H]21

>  <Energy>  (14) 
47.5623624453901

>  <Genealogy>  (14) 
O=C([O-])C[NH2+]CC[C@@H]1OC[C@@H]2[N-]C(=O)[N-][C@@H]21 (protonated)
O=C([O-])C[NH2+]CC[C@@H]1OC[C@@H]2[N-]C(=O)[N-][C@@H]21 (3D coordinates assigned)
O=C([O-])C[NH2+]CC[C@@H]1OC[C@@H]2[N-]C(=O)[N-][C@@H]21 (nonaromatic ring conformer: 47.5623624453901 kcal/mol)

>  <score_type>  (14) 
oracle

>  <energy>  (14) 
[-6.36, -6.33, -6.15, -5.82, -5.63, -5.81, -5.81, -5.8, -5.79, -5.79, -5.73, -5.73, -5.73, -5.4, -4.5, -5.01, -4.98, -4.95, -3.39, -3.03]

$$$$
GXTHWFWNSXFFOY-RFBDCVRPNA-L
     RDKit          3D

 29 30  0  0  0  0  0  0  0  0999 V2000
    8.7930    5.0630  -13.8670 O   0  0  0  0  0  0  0  0  0  0  0  0
    9.4420    4.0200  -14.1440 C   0  0  0  0  0  0  0  0  0  0  0  0
    8.8550    3.0310  -14.9240 O   0  0  0  0  0  1  0  0  0  0  0  0
   11.1110    0.4620   -8.1380 C   0  0  0  0  0  0  0  0  0  0  0  0
   11.2840    2.4340  -13.7310 N   0  0  0  0  0  4  0  0  0  0  0  0
   11.1240    0.5600   -9.6630 C   0  0  0  0  0  0  0  0  0  0  0  0
   11.1920    2.6610  -11.2070 C   0  0  0  0  0  0  0  0  0  0  0  0
   11.3810    1.7370  -12.4330 C   0  0  1  0  0  0  0  0  0  0  0  0
   10.8330    2.7490   -8.7670 O   0  0  0  0  0  0  0  0  0  0  0  0
   10.7170    1.8620   -7.6790 C   0  0  0  0  0  0  0  0  0  0  0  0
   10.8340    3.8340  -13.6160 C   0  0  2  0  0  0  0  0  0  0  0  0
   12.5090    0.3530  -10.0750 N   0  0  0  0  0  2  0  0  0  0  0  0
   13.2450    0.0950   -8.9010 C   0  0  0  0  0  0  0  0  0  0  0  0
   14.4800   -0.1430   -8.9040 O   0  0  0  0  0  0  0  0  0  0  0  0
   12.4720    0.1400   -7.7250 N   0  0  0  0  0  2  0  0  0  0  0  0
   10.6170    1.9820   -9.9300 C   0  0  1  0  0  0  0  0  0  0  0  0
   10.4298   -0.2968   -7.7256 H   0  0  0  0  0  0  0  0  0  0  0  0
   10.5081   -0.1690  -10.2101 H   0  0  0  0  0  0  0  0  0  0  0  0
   12.2270    2.4170  -14.1880 H   0  0  0  0  0  0  0  0  0  0  0  0
   10.6390    1.9180  -14.3700 H   0  0  0  0  0  0  0  0  0  0  0  0
    9.5423    1.9155  -10.1550 H   0  0  0  0  0  0  0  0  0  0  0  0
   11.5200    4.4760  -14.1880 H   0  0  0  0  0  0  0  0  0  0  0  0
   12.1734    3.0864  -10.9504 H   0  0  0  0  0  0  0  0  0  0  0  0
   10.4453    3.4100  -11.5094 H   0  0  0  0  0  0  0  0  0  0  0  0
   12.3993    1.3260  -12.3678 H   0  0  0  0  0  0  0  0  0  0  0  0
   11.3841    2.1854   -6.8663 H   0  0  0  0  0  0  0  0  0  0  0  0
    9.6798    1.8557   -7.3126 H   0  0  0  0  0  0  0  0  0  0  0  0
   10.6064    0.9567  -12.4007 H   0  0  0  0  0  0  0  0  0  0  0  0
   10.8330    4.1050  -12.5499 H   0  0  0  0  0  0  0  0  0  0  0  0
  1  2  2  0
  2  3  1  0
  2  4  1  0
  4  5  1  0
  5  6  1  0
  6  7  1  0
  7  8  1  0
  8  9  1  0
  9 10  1  0
 10 11  1  0
 11 12  1  0
 12 13  1  0
 13 14  2  0
 13 15  1  0
 15 16  1  0
 16  8  1  0
 16 11  1  0
  4 17  1  0
  4 18  1  0
  5 19  1  0
  5 20  1  0
  6 21  1  0
  6 22  1  0
  7 23  1  0
  7 24  1  0
  8 25  1  6
 10 26  1  0
 10 27  1  0
 11 28  1  6
 16 29  1  6
M  CHG  4   3  -1   5   1  12  -1  15  -1
M  END
>  <UniqueID>  (15) 
2

>  <SMILES>  (15) 
O=C([O-])C[NH2+]CC[C@@H]1OC[C@@H]2[N-]C(=O)[N-][C@@H]21

>  <Energy>  (15) 
47.5623624453901

>  <Genealogy>  (15) 
O=C([O-])C[NH2+]CC[C@@H]1OC[C@@H]2[N-]C(=O)[N-][C@@H]21 (protonated)
O=C([O-])C[NH2+]CC[C@@H]1OC[C@@H]2[N-]C(=O)[N-][C@@H]21 (3D coordinates assigned)
O=C([O-])C[NH2+]CC[C@@H]1OC[C@@H]2[N-]C(=O)[N-][C@@H]21 (nonaromatic ring conformer: 47.5623624453901 kcal/mol)

>  <score_type>  (15) 
oracle

>  <energy>  (15) 
[-6.36, -6.33, -6.15, -5.82, -5.63, -5.81, -5.81, -5.8, -5.79, -5.79, -5.73, -5.73, -5.73, -5.4, -4.5, -5.01, -4.98, -4.95, -3.39, -3.03]

$$$$
GXTHWFWNSXFFOY-RFBDCVRPNA-L
     RDKit          3D

 29 30  0  0  0  0  0  0  0  0999 V2000
    8.7930    5.0630  -13.8670 O   0  0  0  0  0  0  0  0  0  0  0  0
    9.4420    4.0200  -14.1440 C   0  0  0  0  0  0  0  0  0  0  0  0
    8.8550    3.0310  -14.9240 O   0  0  0  0  0  1  0  0  0  0  0  0
   11.1110    0.4620   -8.1380 C   0  0  0  0  0  0  0  0  0  0  0  0
   11.2840    2.4340  -13.7310 N   0  0  0  0  0  4  0  0  0  0  0  0
   11.1240    0.5600   -9.6630 C   0  0  0  0  0  0  0  0  0  0  0  0
   11.1920    2.6610  -11.2070 C   0  0  0  0  0  0  0  0  0  0  0  0
   11.3810    1.7370  -12.4330 C   0  0  1  0  0  0  0  0  0  0  0  0
   10.8330    2.7490   -8.7670 O   0  0  0  0  0  0  0  0  0  0  0  0
   10.7170    1.8620   -7.6790 C   0  0  0  0  0  0  0  0  0  0  0  0
   10.8340    3.8340  -13.6160 C   0  0  2  0  0  0  0  0  0  0  0  0
   12.5090    0.3530  -10.0750 N   0  0  0  0  0  2  0  0  0  0  0  0
   13.2450    0.0950   -8.9010 C   0  0  0  0  0  0  0  0  0  0  0  0
   14.4800   -0.1430   -8.9040 O   0  0  0  0  0  0  0  0  0  0  0  0
   12.4720    0.1400   -7.7250 N   0  0  0  0  0  2  0  0  0  0  0  0
   10.6170    1.9820   -9.9300 C   0  0  1  0  0  0  0  0  0  0  0  0
   10.4298   -0.2968   -7.7256 H   0  0  0  0  0  0  0  0  0  0  0  0
   10.5081   -0.1690  -10.2101 H   0  0  0  0  0  0  0  0  0  0  0  0
   12.2270    2.4170  -14.1880 H   0  0  0  0  0  0  0  0  0  0  0  0
   10.6390    1.9180  -14.3700 H   0  0  0  0  0  0  0  0  0  0  0  0
    9.5423    1.9155  -10.1550 H   0  0  0  0  0  0  0  0  0  0  0  0
   11.5200    4.4760  -14.1880 H   0  0  0  0  0  0  0  0  0  0  0  0
   12.1734    3.0864  -10.9504 H   0  0  0  0  0  0  0  0  0  0  0  0
   10.4453    3.4100  -11.5094 H   0  0  0  0  0  0  0  0  0  0  0  0
   12.3993    1.3260  -12.3678 H   0  0  0  0  0  0  0  0  0  0  0  0
   11.3841    2.1854   -6.8663 H   0  0  0  0  0  0  0  0  0  0  0  0
    9.6798    1.8557   -7.3126 H   0  0  0  0  0  0  0  0  0  0  0  0
   10.6064    0.9567  -12.4007 H   0  0  0  0  0  0  0  0  0  0  0  0
   10.8330    4.1050  -12.5499 H   0  0  0  0  0  0  0  0  0  0  0  0
  1  2  2  0
  2  3  1  0
  2  4  1  0
  4  5  1  0
  5  6  1  0
  6  7  1  0
  7  8  1  0
  8  9  1  0
  9 10  1  0
 10 11  1  0
 11 12  1  0
 12 13  1  0
 13 14  2  0
 13 15  1  0
 15 16  1  0
 16  8  1  0
 16 11  1  0
  4 17  1  0
  4 18  1  0
  5 19  1  0
  5 20  1  0
  6 21  1  0
  6 22  1  0
  7 23  1  0
  7 24  1  0
  8 25  1  6
 10 26  1  0
 10 27  1  0
 11 28  1  6
 16 29  1  6
M  CHG  4   3  -1   5   1  12  -1  15  -1
M  END
>  <UniqueID>  (16) 
2

>  <SMILES>  (16) 
O=C([O-])C[NH2+]CC[C@@H]1OC[C@@H]2[N-]C(=O)[N-][C@@H]21

>  <Energy>  (16) 
47.5623624453901

>  <Genealogy>  (16) 
O=C([O-])C[NH2+]CC[C@@H]1OC[C@@H]2[N-]C(=O)[N-][C@@H]21 (protonated)
O=C([O-])C[NH2+]CC[C@@H]1OC[C@@H]2[N-]C(=O)[N-][C@@H]21 (3D coordinates assigned)
O=C([O-])C[NH2+]CC[C@@H]1OC[C@@H]2[N-]C(=O)[N-][C@@H]21 (nonaromatic ring conformer: 47.5623624453901 kcal/mol)

>  <score_type>  (16) 
oracle

>  <energy>  (16) 
[-6.36, -6.33, -6.15, -5.82, -5.63, -5.81, -5.81, -5.8, -5.79, -5.79, -5.73, -5.73, -5.73, -5.4, -4.5, -5.01, -4.98, -4.95, -3.39, -3.03]

$$$$
GXTHWFWNSXFFOY-RFBDCVRPNA-L
     RDKit          3D

 29 30  0  0  0  0  0  0  0  0999 V2000
    8.7930    5.0630  -13.8670 O   0  0  0  0  0  0  0  0  0  0  0  0
    9.4420    4.0200  -14.1440 C   0  0  0  0  0  0  0  0  0  0  0  0
    8.8550    3.0310  -14.9240 O   0  0  0  0  0  1  0  0  0  0  0  0
   11.1110    0.4620   -8.1380 C   0  0  0  0  0  0  0  0  0  0  0  0
   11.2840    2.4340  -13.7310 N   0  0  0  0  0  4  0  0  0  0  0  0
   11.1240    0.5600   -9.6630 C   0  0  0  0  0  0  0  0  0  0  0  0
   11.1920    2.6610  -11.2070 C   0  0  0  0  0  0  0  0  0  0  0  0
   11.3810    1.7370  -12.4330 C   0  0  1  0  0  0  0  0  0  0  0  0
   10.8330    2.7490   -8.7670 O   0  0  0  0  0  0  0  0  0  0  0  0
   10.7170    1.8620   -7.6790 C   0  0  0  0  0  0  0  0  0  0  0  0
   10.8340    3.8340  -13.6160 C   0  0  2  0  0  0  0  0  0  0  0  0
   12.5090    0.3530  -10.0750 N   0  0  0  0  0  2  0  0  0  0  0  0
   13.2450    0.0950   -8.9010 C   0  0  0  0  0  0  0  0  0  0  0  0
   14.4800   -0.1430   -8.9040 O   0  0  0  0  0  0  0  0  0  0  0  0
   12.4720    0.1400   -7.7250 N   0  0  0  0  0  2  0  0  0  0  0  0
   10.6170    1.9820   -9.9300 C   0  0  1  0  0  0  0  0  0  0  0  0
   10.4298   -0.2968   -7.7256 H   0  0  0  0  0  0  0  0  0  0  0  0
   10.5081   -0.1690  -10.2101 H   0  0  0  0  0  0  0  0  0  0  0  0
   12.2270    2.4170  -14.1880 H   0  0  0  0  0  0  0  0  0  0  0  0
   10.6390    1.9180  -14.3700 H   0  0  0  0  0  0  0  0  0  0  0  0
    9.5423    1.9155  -10.1550 H   0  0  0  0  0  0  0  0  0  0  0  0
   11.5200    4.4760  -14.1880 H   0  0  0  0  0  0  0  0  0  0  0  0
   12.1734    3.0864  -10.9504 H   0  0  0  0  0  0  0  0  0  0  0  0
   10.4453    3.4100  -11.5094 H   0  0  0  0  0  0  0  0  0  0  0  0
   12.3993    1.3260  -12.3678 H   0  0  0  0  0  0  0  0  0  0  0  0
   11.3841    2.1854   -6.8663 H   0  0  0  0  0  0  0  0  0  0  0  0
    9.6798    1.8557   -7.3126 H   0  0  0  0  0  0  0  0  0  0  0  0
   10.6064    0.9567  -12.4007 H   0  0  0  0  0  0  0  0  0  0  0  0
   10.8330    4.1050  -12.5499 H   0  0  0  0  0  0  0  0  0  0  0  0
  1  2  2  0
  2  3  1  0
  2  4  1  0
  4  5  1  0
  5  6  1  0
  6  7  1  0
  7  8  1  0
  8  9  1  0
  9 10  1  0
 10 11  1  0
 11 12  1  0
 12 13  1  0
 13 14  2  0
 13 15  1  0
 15 16  1  0
 16  8  1  0
 16 11  1  0
  4 17  1  0
  4 18  1  0
  5 19  1  0
  5 20  1  0
  6 21  1  0
  6 22  1  0
  7 23  1  0
  7 24  1  0
  8 25  1  6
 10 26  1  0
 10 27  1  0
 11 28  1  6
 16 29  1  6
M  CHG  4   3  -1   5   1  12  -1  15  -1
M  END
>  <UniqueID>  (17) 
2

>  <SMILES>  (17) 
O=C([O-])C[NH2+]CC[C@@H]1OC[C@@H]2[N-]C(=O)[N-][C@@H]21

>  <Energy>  (17) 
47.5623624453901

>  <Genealogy>  (17) 
O=C([O-])C[NH2+]CC[C@@H]1OC[C@@H]2[N-]C(=O)[N-][C@@H]21 (protonated)
O=C([O-])C[NH2+]CC[C@@H]1OC[C@@H]2[N-]C(=O)[N-][C@@H]21 (3D coordinates assigned)
O=C([O-])C[NH2+]CC[C@@H]1OC[C@@H]2[N-]C(=O)[N-][C@@H]21 (nonaromatic ring conformer: 47.5623624453901 kcal/mol)

>  <score_type>  (17) 
oracle

>  <energy>  (17) 
[-6.36, -6.33, -6.15, -5.82, -5.63, -5.81, -5.81, -5.8, -5.79, -5.79, -5.73, -5.73, -5.73, -5.4, -4.5, -5.01, -4.98, -4.95, -3.39, -3.03]

$$$$
GXTHWFWNSXFFOY-RFBDCVRPNA-L
     RDKit          3D

 29 30  0  0  0  0  0  0  0  0999 V2000
    8.7930    5.0630  -13.8670 O   0  0  0  0  0  0  0  0  0  0  0  0
    9.4420    4.0200  -14.1440 C   0  0  0  0  0  0  0  0  0  0  0  0
    8.8550    3.0310  -14.9240 O   0  0  0  0  0  1  0  0  0  0  0  0
   11.1110    0.4620   -8.1380 C   0  0  0  0  0  0  0  0  0  0  0  0
   11.2840    2.4340  -13.7310 N   0  0  0  0  0  4  0  0  0  0  0  0
   11.1240    0.5600   -9.6630 C   0  0  0  0  0  0  0  0  0  0  0  0
   11.1920    2.6610  -11.2070 C   0  0  0  0  0  0  0  0  0  0  0  0
   11.3810    1.7370  -12.4330 C   0  0  1  0  0  0  0  0  0  0  0  0
   10.8330    2.7490   -8.7670 O   0  0  0  0  0  0  0  0  0  0  0  0
   10.7170    1.8620   -7.6790 C   0  0  0  0  0  0  0  0  0  0  0  0
   10.8340    3.8340  -13.6160 C   0  0  2  0  0  0  0  0  0  0  0  0
   12.5090    0.3530  -10.0750 N   0  0  0  0  0  2  0  0  0  0  0  0
   13.2450    0.0950   -8.9010 C   0  0  0  0  0  0  0  0  0  0  0  0
   14.4800   -0.1430   -8.9040 O   0  0  0  0  0  0  0  0  0  0  0  0
   12.4720    0.1400   -7.7250 N   0  0  0  0  0  2  0  0  0  0  0  0
   10.6170    1.9820   -9.9300 C   0  0  1  0  0  0  0  0  0  0  0  0
   10.4298   -0.2968   -7.7256 H   0  0  0  0  0  0  0  0  0  0  0  0
   10.5081   -0.1690  -10.2101 H   0  0  0  0  0  0  0  0  0  0  0  0
   12.2270    2.4170  -14.1880 H   0  0  0  0  0  0  0  0  0  0  0  0
   10.6390    1.9180  -14.3700 H   0  0  0  0  0  0  0  0  0  0  0  0
    9.5423    1.9155  -10.1550 H   0  0  0  0  0  0  0  0  0  0  0  0
   11.5200    4.4760  -14.1880 H   0  0  0  0  0  0  0  0  0  0  0  0
   12.1734    3.0864  -10.9504 H   0  0  0  0  0  0  0  0  0  0  0  0
   10.4453    3.4100  -11.5094 H   0  0  0  0  0  0  0  0  0  0  0  0
   12.3993    1.3260  -12.3678 H   0  0  0  0  0  0  0  0  0  0  0  0
   11.3841    2.1854   -6.8663 H   0  0  0  0  0  0  0  0  0  0  0  0
    9.6798    1.8557   -7.3126 H   0  0  0  0  0  0  0  0  0  0  0  0
   10.6064    0.9567  -12.4007 H   0  0  0  0  0  0  0  0  0  0  0  0
   10.8330    4.1050  -12.5499 H   0  0  0  0  0  0  0  0  0  0  0  0
  1  2  2  0
  2  3  1  0
  2  4  1  0
  4  5  1  0
  5  6  1  0
  6  7  1  0
  7  8  1  0
  8  9  1  0
  9 10  1  0
 10 11  1  0
 11 12  1  0
 12 13  1  0
 13 14  2  0
 13 15  1  0
 15 16  1  0
 16  8  1  0
 16 11  1  0
  4 17  1  0
  4 18  1  0
  5 19  1  0
  5 20  1  0
  6 21  1  0
  6 22  1  0
  7 23  1  0
  7 24  1  0
  8 25  1  6
 10 26  1  0
 10 27  1  0
 11 28  1  6
 16 29  1  6
M  CHG  4   3  -1   5   1  12  -1  15  -1
M  END
>  <UniqueID>  (18) 
2

>  <SMILES>  (18) 
O=C([O-])C[NH2+]CC[C@@H]1OC[C@@H]2[N-]C(=O)[N-][C@@H]21

>  <Energy>  (18) 
47.5623624453901

>  <Genealogy>  (18) 
O=C([O-])C[NH2+]CC[C@@H]1OC[C@@H]2[N-]C(=O)[N-][C@@H]21 (protonated)
O=C([O-])C[NH2+]CC[C@@H]1OC[C@@H]2[N-]C(=O)[N-][C@@H]21 (3D coordinates assigned)
O=C([O-])C[NH2+]CC[C@@H]1OC[C@@H]2[N-]C(=O)[N-][C@@H]21 (nonaromatic ring conformer: 47.5623624453901 kcal/mol)

>  <score_type>  (18) 
oracle

>  <energy>  (18) 
[-6.36, -6.33, -6.15, -5.82, -5.63, -5.81, -5.81, -5.8, -5.79, -5.79, -5.73, -5.73, -5.73, -5.4, -4.5, -5.01, -4.98, -4.95, -3.39, -3.03]

$$$$
GXTHWFWNSXFFOY-RFBDCVRPNA-L
     RDKit          3D

 29 30  0  0  0  0  0  0  0  0999 V2000
    8.7930    5.0630  -13.8670 O   0  0  0  0  0  0  0  0  0  0  0  0
    9.4420    4.0200  -14.1440 C   0  0  0  0  0  0  0  0  0  0  0  0
    8.8550    3.0310  -14.9240 O   0  0  0  0  0  1  0  0  0  0  0  0
   11.1110    0.4620   -8.1380 C   0  0  0  0  0  0  0  0  0  0  0  0
   11.2840    2.4340  -13.7310 N   0  0  0  0  0  4  0  0  0  0  0  0
   11.1240    0.5600   -9.6630 C   0  0  0  0  0  0  0  0  0  0  0  0
   11.1920    2.6610  -11.2070 C   0  0  0  0  0  0  0  0  0  0  0  0
   11.3810    1.7370  -12.4330 C   0  0  1  0  0  0  0  0  0  0  0  0
   10.8330    2.7490   -8.7670 O   0  0  0  0  0  0  0  0  0  0  0  0
   10.7170    1.8620   -7.6790 C   0  0  0  0  0  0  0  0  0  0  0  0
   10.8340    3.8340  -13.6160 C   0  0  2  0  0  0  0  0  0  0  0  0
   12.5090    0.3530  -10.0750 N   0  0  0  0  0  2  0  0  0  0  0  0
   13.2450    0.0950   -8.9010 C   0  0  0  0  0  0  0  0  0  0  0  0
   14.4800   -0.1430   -8.9040 O   0  0  0  0  0  0  0  0  0  0  0  0
   12.4720    0.1400   -7.7250 N   0  0  0  0  0  2  0  0  0  0  0  0
   10.6170    1.9820   -9.9300 C   0  0  1  0  0  0  0  0  0  0  0  0
   10.4298   -0.2968   -7.7256 H   0  0  0  0  0  0  0  0  0  0  0  0
   10.5081   -0.1690  -10.2101 H   0  0  0  0  0  0  0  0  0  0  0  0
   12.2270    2.4170  -14.1880 H   0  0  0  0  0  0  0  0  0  0  0  0
   10.6390    1.9180  -14.3700 H   0  0  0  0  0  0  0  0  0  0  0  0
    9.5423    1.9155  -10.1550 H   0  0  0  0  0  0  0  0  0  0  0  0
   11.5200    4.4760  -14.1880 H   0  0  0  0  0  0  0  0  0  0  0  0
   12.1734    3.0864  -10.9504 H   0  0  0  0  0  0  0  0  0  0  0  0
   10.4453    3.4100  -11.5094 H   0  0  0  0  0  0  0  0  0  0  0  0
   12.3993    1.3260  -12.3678 H   0  0  0  0  0  0  0  0  0  0  0  0
   11.3841    2.1854   -6.8663 H   0  0  0  0  0  0  0  0  0  0  0  0
    9.6798    1.8557   -7.3126 H   0  0  0  0  0  0  0  0  0  0  0  0
   10.6064    0.9567  -12.4007 H   0  0  0  0  0  0  0  0  0  0  0  0
   10.8330    4.1050  -12.5499 H   0  0  0  0  0  0  0  0  0  0  0  0
  1  2  2  0
  2  3  1  0
  2  4  1  0
  4  5  1  0
  5  6  1  0
  6  7  1  0
  7  8  1  0
  8  9  1  0
  9 10  1  0
 10 11  1  0
 11 12  1  0
 12 13  1  0
 13 14  2  0
 13 15  1  0
 15 16  1  0
 16  8  1  0
 16 11  1  0
  4 17  1  0
  4 18  1  0
  5 19  1  0
  5 20  1  0
  6 21  1  0
  6 22  1  0
  7 23  1  0
  7 24  1  0
  8 25  1  6
 10 26  1  0
 10 27  1  0
 11 28  1  6
 16 29  1  6
M  CHG  4   3  -1   5   1  12  -1  15  -1
M  END
>  <UniqueID>  (19) 
2

>  <SMILES>  (19) 
O=C([O-])C[NH2+]CC[C@@H]1OC[C@@H]2[N-]C(=O)[N-][C@@H]21

>  <Energy>  (19) 
47.5623624453901

>  <Genealogy>  (19) 
O=C([O-])C[NH2+]CC[C@@H]1OC[C@@H]2[N-]C(=O)[N-][C@@H]21 (protonated)
O=C([O-])C[NH2+]CC[C@@H]1OC[C@@H]2[N-]C(=O)[N-][C@@H]21 (3D coordinates assigned)
O=C([O-])C[NH2+]CC[C@@H]1OC[C@@H]2[N-]C(=O)[N-][C@@H]21 (nonaromatic ring conformer: 47.5623624453901 kcal/mol)

>  <score_type>  (19) 
oracle

>  <energy>  (19) 
[-6.36, -6.33, -6.15, -5.82, -5.63, -5.81, -5.81, -5.8, -5.79, -5.79, -5.73, -5.73, -5.73, -5.4, -4.5, -5.01, -4.98, -4.95, -3.39, -3.03]

$$$$
GXTHWFWNSXFFOY-RFBDCVRPNA-L
     RDKit          3D

 29 30  0  0  0  0  0  0  0  0999 V2000
    8.7930    5.0630  -13.8670 O   0  0  0  0  0  0  0  0  0  0  0  0
    9.4420    4.0200  -14.1440 C   0  0  0  0  0  0  0  0  0  0  0  0
    8.8550    3.0310  -14.9240 O   0  0  0  0  0  1  0  0  0  0  0  0
   11.1110    0.4620   -8.1380 C   0  0  0  0  0  0  0  0  0  0  0  0
   11.2840    2.4340  -13.7310 N   0  0  0  0  0  4  0  0  0  0  0  0
   11.1240    0.5600   -9.6630 C   0  0  0  0  0  0  0  0  0  0  0  0
   11.1920    2.6610  -11.2070 C   0  0  0  0  0  0  0  0  0  0  0  0
   11.3810    1.7370  -12.4330 C   0  0  1  0  0  0  0  0  0  0  0  0
   10.8330    2.7490   -8.7670 O   0  0  0  0  0  0  0  0  0  0  0  0
   10.7170    1.8620   -7.6790 C   0  0  0  0  0  0  0  0  0  0  0  0
   10.8340    3.8340  -13.6160 C   0  0  2  0  0  0  0  0  0  0  0  0
   12.5090    0.3530  -10.0750 N   0  0  0  0  0  2  0  0  0  0  0  0
   13.2450    0.0950   -8.9010 C   0  0  0  0  0  0  0  0  0  0  0  0
   14.4800   -0.1430   -8.9040 O   0  0  0  0  0  0  0  0  0  0  0  0
   12.4720    0.1400   -7.7250 N   0  0  0  0  0  2  0  0  0  0  0  0
   10.6170    1.9820   -9.9300 C   0  0  1  0  0  0  0  0  0  0  0  0
   10.4298   -0.2968   -7.7256 H   0  0  0  0  0  0  0  0  0  0  0  0
   10.5081   -0.1690  -10.2101 H   0  0  0  0  0  0  0  0  0  0  0  0
   12.2270    2.4170  -14.1880 H   0  0  0  0  0  0  0  0  0  0  0  0
   10.6390    1.9180  -14.3700 H   0  0  0  0  0  0  0  0  0  0  0  0
    9.5423    1.9155  -10.1550 H   0  0  0  0  0  0  0  0  0  0  0  0
   11.5200    4.4760  -14.1880 H   0  0  0  0  0  0  0  0  0  0  0  0
   12.1734    3.0864  -10.9504 H   0  0  0  0  0  0  0  0  0  0  0  0
   10.4453    3.4100  -11.5094 H   0  0  0  0  0  0  0  0  0  0  0  0
   12.3993    1.3260  -12.3678 H   0  0  0  0  0  0  0  0  0  0  0  0
   11.3841    2.1854   -6.8663 H   0  0  0  0  0  0  0  0  0  0  0  0
    9.6798    1.8557   -7.3126 H   0  0  0  0  0  0  0  0  0  0  0  0
   10.6064    0.9567  -12.4007 H   0  0  0  0  0  0  0  0  0  0  0  0
   10.8330    4.1050  -12.5499 H   0  0  0  0  0  0  0  0  0  0  0  0
  1  2  2  0
  2  3  1  0
  2  4  1  0
  4  5  1  0
  5  6  1  0
  6  7  1  0
  7  8  1  0
  8  9  1  0
  9 10  1  0
 10 11  1  0
 11 12  1  0
 12 13  1  0
 13 14  2  0
 13 15  1  0
 15 16  1  0
 16  8  1  0
 16 11  1  0
  4 17  1  0
  4 18  1  0
  5 19  1  0
  5 20  1  0
  6 21  1  0
  6 22  1  0
  7 23  1  0
  7 24  1  0
  8 25  1  6
 10 26  1  0
 10 27  1  0
 11 28  1  6
 16 29  1  6
M  CHG  4   3  -1   5   1  12  -1  15  -1
M  END
>  <UniqueID>  (20) 
2

>  <SMILES>  (20) 
O=C([O-])C[NH2+]CC[C@@H]1OC[C@@H]2[N-]C(=O)[N-][C@@H]21

>  <Energy>  (20) 
47.5623624453901

>  <Genealogy>  (20) 
O=C([O-])C[NH2+]CC[C@@H]1OC[C@@H]2[N-]C(=O)[N-][C@@H]21 (protonated)
O=C([O-])C[NH2+]CC[C@@H]1OC[C@@H]2[N-]C(=O)[N-][C@@H]21 (3D coordinates assigned)
O=C([O-])C[NH2+]CC[C@@H]1OC[C@@H]2[N-]C(=O)[N-][C@@H]21 (nonaromatic ring conformer: 47.5623624453901 kcal/mol)

>  <score_type>  (20) 
oracle

>  <energy>  (20) 
[-6.36, -6.33, -6.15, -5.82, -5.63, -5.81, -5.81, -5.8, -5.79, -5.79, -5.73, -5.73, -5.73, -5.4, -4.5, -5.01, -4.98, -4.95, -3.39, -3.03]

$$$$
