GXTHWFWNSXFFOY-SJXMAQCXNA-K
     RDKit          3D

 28 29  0  0  0  0  0  0  0  0999 V2000
    8.7200    5.0200  -13.8220 O   0  0  0  0  0  0  0  0  0  0  0  0
    9.3880    3.9990  -14.1340 C   0  0  0  0  0  0  0  0  0  0  0  0
    8.8620    3.0780  -15.0290 O   0  0  0  0  0  1  0  0  0  0  0  0
   10.7540    3.7920  -13.5600 C   0  0  0  0  0  0  0  0  0  0  0  0
   11.1910    2.4060  -13.7720 N   0  0  0  0  0  0  0  0  0  0  0  0
   10.6940    1.9210   -7.7910 C   0  0  0  0  0  0  0  0  0  0  0  0
   11.3460    2.6290  -11.2830 C   0  0  0  0  0  0  0  0  0  0  0  0
   10.6740    1.9900  -10.0460 C   0  0  2  0  0  0  0  0  0  0  0  0
   10.8600    2.7810   -8.8950 O   0  0  0  0  0  0  0  0  0  0  0  0
   11.4160    1.6870  -12.5060 C   0  0  0  0  0  0  0  0  0  0  0  0
   11.1220    0.5580   -9.7280 C   0  0  1  0  0  0  0  0  0  0  0  0
   12.5000    0.2820  -10.1230 N   0  0  0  0  0  2  0  0  0  0  0  0
   13.2290    0.0820   -8.9350 C   0  0  0  0  0  0  0  0  0  0  0  0
   14.4580   -0.1800   -8.9180 O   0  0  0  0  0  0  0  0  0  0  0  0
   12.4540    0.2050   -7.7660 N   0  0  0  0  0  2  0  0  0  0  0  0
   11.0950    0.5110   -8.2010 C   0  0  1  0  0  0  0  0  0  0  0  0
   11.4619    4.4751  -14.0523 H   0  0  0  0  0  0  0  0  0  0  0  0
   10.7230    3.9962  -12.4796 H   0  0  0  0  0  0  0  0  0  0  0  0
   12.0720    2.4100  -14.3380 H   0  0  0  0  0  0  0  0  0  0  0  0
   11.3306    2.2593   -6.9602 H   0  0  0  0  0  0  0  0  0  0  0  0
    9.6433    1.9303   -7.4654 H   0  0  0  0  0  0  0  0  0  0  0  0
   12.3708    2.9208  -11.0099 H   0  0  0  0  0  0  0  0  0  0  0  0
   10.7288    3.4913  -11.5755 H   0  0  0  0  0  0  0  0  0  0  0  0
    9.6108    1.9391  -10.3235 H   0  0  0  0  0  0  0  0  0  0  0  0
   10.6465    0.9083  -12.3986 H   0  0  0  0  0  0  0  0  0  0  0  0
   12.4245    1.2491  -12.5394 H   0  0  0  0  0  0  0  0  0  0  0  0
   10.4808   -0.1637  -10.2552 H   0  0  0  0  0  0  0  0  0  0  0  0
   10.4110   -0.2348   -7.7700 H   0  0  0  0  0  0  0  0  0  0  0  0
  1  2  2  0
  2  3  1  0
  2  4  1  0
  4  5  1  0
  5  6  1  0
  6  7  1  0
  7  8  1  0
  8  9  1  0
  9 10  1  0
 10 11  1  0
 11 12  1  0
 12 13  1  0
 13 14  2  0
 13 15  1  0
 15 16  1  0
 16  8  1  0
 16 11  1  0
  4 17  1  0
  4 18  1  0
  5 19  1  0
  6 20  1  0
  6 21  1  0
  7 22  1  0
  7 23  1  0
  8 24  1  6
 10 25  1  0
 10 26  1  0
 11 27  1  1
 16 28  1  1
M  CHG  3   3  -1  12  -1  15  -1
M  END
>  <UniqueID>  (1) 
1

>  <SMILES>  (1) 
O=C([O-])CNCC[C@@H]1OC[C@@H]2[N-]C(=O)[N-][C@@H]21

>  <Energy>  (1) 
42.304328830298104

>  <Genealogy>  (1) 
O=C([O-])CNCC[C@@H]1OC[C@@H]2[N-]C(=O)[N-][C@@H]21 (protonated)
O=C([O-])CNCC[C@@H]1OC[C@@H]2[N-]C(=O)[N-][C@@H]21 (3D coordinates assigned)
O=C([O-])CNCC[C@@H]1OC[C@@H]2[N-]C(=O)[N-][C@@H]21 (nonaromatic ring conformer: 42.304328830298104 kcal/mol)

>  <score_type>  (1) 
oracle

>  <energy>  (1) 
[-6.75, -6.73, -6.68, -6.64, -6.62, -6.35, -6.33, -6.27, -6.25, -5.98, -5.85, -5.84, -5.81, -5.81, -5.76, -5.74, -5.73, -5.7, -5.65, -5.44]

$$$$
GXTHWFWNSXFFOY-SJXMAQCXNA-K
     RDKit          3D

 28 29  0  0  0  0  0  0  0  0999 V2000
    8.7200    5.0200  -13.8220 O   0  0  0  0  0  0  0  0  0  0  0  0
    9.3880    3.9990  -14.1340 C   0  0  0  0  0  0  0  0  0  0  0  0
    8.8620    3.0780  -15.0290 O   0  0  0  0  0  1  0  0  0  0  0  0
   10.7540    3.7920  -13.5600 C   0  0  0  0  0  0  0  0  0  0  0  0
   11.1910    2.4060  -13.7720 N   0  0  0  0  0  0  0  0  0  0  0  0
   10.6940    1.9210   -7.7910 C   0  0  0  0  0  0  0  0  0  0  0  0
   11.3460    2.6290  -11.2830 C   0  0  0  0  0  0  0  0  0  0  0  0
   10.6740    1.9900  -10.0460 C   0  0  2  0  0  0  0  0  0  0  0  0
   10.8600    2.7810   -8.8950 O   0  0  0  0  0  0  0  0  0  0  0  0
   11.4160    1.6870  -12.5060 C   0  0  0  0  0  0  0  0  0  0  0  0
   11.1220    0.5580   -9.7280 C   0  0  1  0  0  0  0  0  0  0  0  0
   12.5000    0.2820  -10.1230 N   0  0  0  0  0  2  0  0  0  0  0  0
   13.2290    0.0820   -8.9350 C   0  0  0  0  0  0  0  0  0  0  0  0
   14.4580   -0.1800   -8.9180 O   0  0  0  0  0  0  0  0  0  0  0  0
   12.4540    0.2050   -7.7660 N   0  0  0  0  0  2  0  0  0  0  0  0
   11.0950    0.5110   -8.2010 C   0  0  1  0  0  0  0  0  0  0  0  0
   11.4619    4.4751  -14.0523 H   0  0  0  0  0  0  0  0  0  0  0  0
   10.7230    3.9962  -12.4796 H   0  0  0  0  0  0  0  0  0  0  0  0
   12.0720    2.4100  -14.3380 H   0  0  0  0  0  0  0  0  0  0  0  0
   11.3306    2.2593   -6.9602 H   0  0  0  0  0  0  0  0  0  0  0  0
    9.6433    1.9303   -7.4654 H   0  0  0  0  0  0  0  0  0  0  0  0
   12.3708    2.9208  -11.0099 H   0  0  0  0  0  0  0  0  0  0  0  0
   10.7288    3.4913  -11.5755 H   0  0  0  0  0  0  0  0  0  0  0  0
    9.6108    1.9391  -10.3235 H   0  0  0  0  0  0  0  0  0  0  0  0
   10.6465    0.9083  -12.3986 H   0  0  0  0  0  0  0  0  0  0  0  0
   12.4245    1.2491  -12.5394 H   0  0  0  0  0  0  0  0  0  0  0  0
   10.4808   -0.1637  -10.2552 H   0  0  0  0  0  0  0  0  0  0  0  0
   10.4110   -0.2348   -7.7700 H   0  0  0  0  0  0  0  0  0  0  0  0
  1  2  2  0
  2  3  1  0
  2  4  1  0
  4  5  1  0
  5  6  1  0
  6  7  1  0
  7  8  1  0
  8  9  1  0
  9 10  1  0
 10 11  1  0
 11 12  1  0
 12 13  1  0
 13 14  2  0
 13 15  1  0
 15 16  1  0
 16  8  1  0
 16 11  1  0
  4 17  1  0
  4 18  1  0
  5 19  1  0
  6 20  1  0
  6 21  1  0
  7 22  1  0
  7 23  1  0
  8 24  1  6
 10 25  1  0
 10 26  1  0
 11 27  1  1
 16 28  1  1
M  CHG  3   3  -1  12  -1  15  -1
M  END
>  <UniqueID>  (2) 
1

>  <SMILES>  (2) 
O=C([O-])CNCC[C@@H]1OC[C@@H]2[N-]C(=O)[N-][C@@H]21

>  <Energy>  (2) 
42.304328830298104

>  <Genealogy>  (2) 
O=C([O-])CNCC[C@@H]1OC[C@@H]2[N-]C(=O)[N-][C@@H]21 (protonated)
O=C([O-])CNCC[C@@H]1OC[C@@H]2[N-]C(=O)[N-][C@@H]21 (3D coordinates assigned)
O=C([O-])CNCC[C@@H]1OC[C@@H]2[N-]C(=O)[N-][C@@H]21 (nonaromatic ring conformer: 42.304328830298104 kcal/mol)

>  <score_type>  (2) 
oracle

>  <energy>  (2) 
[-6.75, -6.73, -6.68, -6.64, -6.62, -6.35, -6.33, -6.27, -6.25, -5.98, -5.85, -5.84, -5.81, -5.81, -5.76, -5.74, -5.73, -5.7, -5.65, -5.44]

$$$$
GXTHWFWNSXFFOY-SJXMAQCXNA-K
     RDKit          3D

 28 29  0  0  0  0  0  0  0  0999 V2000
    8.7200    5.0200  -13.8220 O   0  0  0  0  0  0  0  0  0  0  0  0
    9.3880    3.9990  -14.1340 C   0  0  0  0  0  0  0  0  0  0  0  0
    8.8620    3.0780  -15.0290 O   0  0  0  0  0  1  0  0  0  0  0  0
   10.7540    3.7920  -13.5600 C   0  0  0  0  0  0  0  0  0  0  0  0
   11.1910    2.4060  -13.7720 N   0  0  0  0  0  0  0  0  0  0  0  0
   10.6940    1.9210   -7.7910 C   0  0  0  0  0  0  0  0  0  0  0  0
   11.3460    2.6290  -11.2830 C   0  0  0  0  0  0  0  0  0  0  0  0
   10.6740    1.9900  -10.0460 C   0  0  2  0  0  0  0  0  0  0  0  0
   10.8600    2.7810   -8.8950 O   0  0  0  0  0  0  0  0  0  0  0  0
   11.4160    1.6870  -12.5060 C   0  0  0  0  0  0  0  0  0  0  0  0
   11.1220    0.5580   -9.7280 C   0  0  1  0  0  0  0  0  0  0  0  0
   12.5000    0.2820  -10.1230 N   0  0  0  0  0  2  0  0  0  0  0  0
   13.2290    0.0820   -8.9350 C   0  0  0  0  0  0  0  0  0  0  0  0
   14.4580   -0.1800   -8.9180 O   0  0  0  0  0  0  0  0  0  0  0  0
   12.4540    0.2050   -7.7660 N   0  0  0  0  0  2  0  0  0  0  0  0
   11.0950    0.5110   -8.2010 C   0  0  1  0  0  0  0  0  0  0  0  0
   11.4619    4.4751  -14.0523 H   0  0  0  0  0  0  0  0  0  0  0  0
   10.7230    3.9962  -12.4796 H   0  0  0  0  0  0  0  0  0  0  0  0
   12.0720    2.4100  -14.3380 H   0  0  0  0  0  0  0  0  0  0  0  0
   11.3306    2.2593   -6.9602 H   0  0  0  0  0  0  0  0  0  0  0  0
    9.6433    1.9303   -7.4654 H   0  0  0  0  0  0  0  0  0  0  0  0
   12.3708    2.9208  -11.0099 H   0  0  0  0  0  0  0  0  0  0  0  0
   10.7288    3.4913  -11.5755 H   0  0  0  0  0  0  0  0  0  0  0  0
    9.6108    1.9391  -10.3235 H   0  0  0  0  0  0  0  0  0  0  0  0
   10.6465    0.9083  -12.3986 H   0  0  0  0  0  0  0  0  0  0  0  0
   12.4245    1.2491  -12.5394 H   0  0  0  0  0  0  0  0  0  0  0  0
   10.4808   -0.1637  -10.2552 H   0  0  0  0  0  0  0  0  0  0  0  0
   10.4110   -0.2348   -7.7700 H   0  0  0  0  0  0  0  0  0  0  0  0
  1  2  2  0
  2  3  1  0
  2  4  1  0
  4  5  1  0
  5  6  1  0
  6  7  1  0
  7  8  1  0
  8  9  1  0
  9 10  1  0
 10 11  1  0
 11 12  1  0
 12 13  1  0
 13 14  2  0
 13 15  1  0
 15 16  1  0
 16  8  1  0
 16 11  1  0
  4 17  1  0
  4 18  1  0
  5 19  1  0
  6 20  1  0
  6 21  1  0
  7 22  1  0
  7 23  1  0
  8 24  1  6
 10 25  1  0
 10 26  1  0
 11 27  1  1
 16 28  1  1
M  CHG  3   3  -1  12  -1  15  -1
M  END
>  <UniqueID>  (3) 
1

>  <SMILES>  (3) 
O=C([O-])CNCC[C@@H]1OC[C@@H]2[N-]C(=O)[N-][C@@H]21

>  <Energy>  (3) 
42.304328830298104

>  <Genealogy>  (3) 
O=C([O-])CNCC[C@@H]1OC[C@@H]2[N-]C(=O)[N-][C@@H]21 (protonated)
O=C([O-])CNCC[C@@H]1OC[C@@H]2[N-]C(=O)[N-][C@@H]21 (3D coordinates assigned)
O=C([O-])CNCC[C@@H]1OC[C@@H]2[N-]C(=O)[N-][C@@H]21 (nonaromatic ring conformer: 42.304328830298104 kcal/mol)

>  <score_type>  (3) 
oracle

>  <energy>  (3) 
[-6.75, -6.73, -6.68, -6.64, -6.62, -6.35, -6.33, -6.27, -6.25, -5.98, -5.85, -5.84, -5.81, -5.81, -5.76, -5.74, -5.73, -5.7, -5.65, -5.44]

$$$$
GXTHWFWNSXFFOY-SJXMAQCXNA-K
     RDKit          3D

 28 29  0  0  0  0  0  0  0  0999 V2000
    8.7200    5.0200  -13.8220 O   0  0  0  0  0  0  0  0  0  0  0  0
    9.3880    3.9990  -14.1340 C   0  0  0  0  0  0  0  0  0  0  0  0
    8.8620    3.0780  -15.0290 O   0  0  0  0  0  1  0  0  0  0  0  0
   10.7540    3.7920  -13.5600 C   0  0  0  0  0  0  0  0  0  0  0  0
   11.1910    2.4060  -13.7720 N   0  0  0  0  0  0  0  0  0  0  0  0
   10.6940    1.9210   -7.7910 C   0  0  0  0  0  0  0  0  0  0  0  0
   11.3460    2.6290  -11.2830 C   0  0  0  0  0  0  0  0  0  0  0  0
   10.6740    1.9900  -10.0460 C   0  0  2  0  0  0  0  0  0  0  0  0
   10.8600    2.7810   -8.8950 O   0  0  0  0  0  0  0  0  0  0  0  0
   11.4160    1.6870  -12.5060 C   0  0  0  0  0  0  0  0  0  0  0  0
   11.1220    0.5580   -9.7280 C   0  0  1  0  0  0  0  0  0  0  0  0
   12.5000    0.2820  -10.1230 N   0  0  0  0  0  2  0  0  0  0  0  0
   13.2290    0.0820   -8.9350 C   0  0  0  0  0  0  0  0  0  0  0  0
   14.4580   -0.1800   -8.9180 O   0  0  0  0  0  0  0  0  0  0  0  0
   12.4540    0.2050   -7.7660 N   0  0  0  0  0  2  0  0  0  0  0  0
   11.0950    0.5110   -8.2010 C   0  0  1  0  0  0  0  0  0  0  0  0
   11.4619    4.4751  -14.0523 H   0  0  0  0  0  0  0  0  0  0  0  0
   10.7230    3.9962  -12.4796 H   0  0  0  0  0  0  0  0  0  0  0  0
   12.0720    2.4100  -14.3380 H   0  0  0  0  0  0  0  0  0  0  0  0
   11.3306    2.2593   -6.9602 H   0  0  0  0  0  0  0  0  0  0  0  0
    9.6433    1.9303   -7.4654 H   0  0  0  0  0  0  0  0  0  0  0  0
   12.3708    2.9208  -11.0099 H   0  0  0  0  0  0  0  0  0  0  0  0
   10.7288    3.4913  -11.5755 H   0  0  0  0  0  0  0  0  0  0  0  0
    9.6108    1.9391  -10.3235 H   0  0  0  0  0  0  0  0  0  0  0  0
   10.6465    0.9083  -12.3986 H   0  0  0  0  0  0  0  0  0  0  0  0
   12.4245    1.2491  -12.5394 H   0  0  0  0  0  0  0  0  0  0  0  0
   10.4808   -0.1637  -10.2552 H   0  0  0  0  0  0  0  0  0  0  0  0
   10.4110   -0.2348   -7.7700 H   0  0  0  0  0  0  0  0  0  0  0  0
  1  2  2  0
  2  3  1  0
  2  4  1  0
  4  5  1  0
  5  6  1  0
  6  7  1  0
  7  8  1  0
  8  9  1  0
  9 10  1  0
 10 11  1  0
 11 12  1  0
 12 13  1  0
 13 14  2  0
 13 15  1  0
 15 16  1  0
 16  8  1  0
 16 11  1  0
  4 17  1  0
  4 18  1  0
  5 19  1  0
  6 20  1  0
  6 21  1  0
  7 22  1  0
  7 23  1  0
  8 24  1  6
 10 25  1  0
 10 26  1  0
 11 27  1  1
 16 28  1  1
M  CHG  3   3  -1  12  -1  15  -1
M  END
>  <UniqueID>  (4) 
1

>  <SMILES>  (4) 
O=C([O-])CNCC[C@@H]1OC[C@@H]2[N-]C(=O)[N-][C@@H]21

>  <Energy>  (4) 
42.304328830298104

>  <Genealogy>  (4) 
O=C([O-])CNCC[C@@H]1OC[C@@H]2[N-]C(=O)[N-][C@@H]21 (protonated)
O=C([O-])CNCC[C@@H]1OC[C@@H]2[N-]C(=O)[N-][C@@H]21 (3D coordinates assigned)
O=C([O-])CNCC[C@@H]1OC[C@@H]2[N-]C(=O)[N-][C@@H]21 (nonaromatic ring conformer: 42.304328830298104 kcal/mol)

>  <score_type>  (4) 
oracle

>  <energy>  (4) 
[-6.75, -6.73, -6.68, -6.64, -6.62, -6.35, -6.33, -6.27, -6.25, -5.98, -5.85, -5.84, -5.81, -5.81, -5.76, -5.74, -5.73, -5.7, -5.65, -5.44]

$$$$
GXTHWFWNSXFFOY-SJXMAQCXNA-K
     RDKit          3D

 28 29  0  0  0  0  0  0  0  0999 V2000
    8.7200    5.0200  -13.8220 O   0  0  0  0  0  0  0  0  0  0  0  0
    9.3880    3.9990  -14.1340 C   0  0  0  0  0  0  0  0  0  0  0  0
    8.8620    3.0780  -15.0290 O   0  0  0  0  0  1  0  0  0  0  0  0
   10.7540    3.7920  -13.5600 C   0  0  0  0  0  0  0  0  0  0  0  0
   11.1910    2.4060  -13.7720 N   0  0  0  0  0  0  0  0  0  0  0  0
   10.6940    1.9210   -7.7910 C   0  0  0  0  0  0  0  0  0  0  0  0
   11.3460    2.6290  -11.2830 C   0  0  0  0  0  0  0  0  0  0  0  0
   10.6740    1.9900  -10.0460 C   0  0  2  0  0  0  0  0  0  0  0  0
   10.8600    2.7810   -8.8950 O   0  0  0  0  0  0  0  0  0  0  0  0
   11.4160    1.6870  -12.5060 C   0  0  0  0  0  0  0  0  0  0  0  0
   11.1220    0.5580   -9.7280 C   0  0  1  0  0  0  0  0  0  0  0  0
   12.5000    0.2820  -10.1230 N   0  0  0  0  0  2  0  0  0  0  0  0
   13.2290    0.0820   -8.9350 C   0  0  0  0  0  0  0  0  0  0  0  0
   14.4580   -0.1800   -8.9180 O   0  0  0  0  0  0  0  0  0  0  0  0
   12.4540    0.2050   -7.7660 N   0  0  0  0  0  2  0  0  0  0  0  0
   11.0950    0.5110   -8.2010 C   0  0  1  0  0  0  0  0  0  0  0  0
   11.4619    4.4751  -14.0523 H   0  0  0  0  0  0  0  0  0  0  0  0
   10.7230    3.9962  -12.4796 H   0  0  0  0  0  0  0  0  0  0  0  0
   12.0720    2.4100  -14.3380 H   0  0  0  0  0  0  0  0  0  0  0  0
   11.3306    2.2593   -6.9602 H   0  0  0  0  0  0  0  0  0  0  0  0
    9.6433    1.9303   -7.4654 H   0  0  0  0  0  0  0  0  0  0  0  0
   12.3708    2.9208  -11.0099 H   0  0  0  0  0  0  0  0  0  0  0  0
   10.7288    3.4913  -11.5755 H   0  0  0  0  0  0  0  0  0  0  0  0
    9.6108    1.9391  -10.3235 H   0  0  0  0  0  0  0  0  0  0  0  0
   10.6465    0.9083  -12.3986 H   0  0  0  0  0  0  0  0  0  0  0  0
   12.4245    1.2491  -12.5394 H   0  0  0  0  0  0  0  0  0  0  0  0
   10.4808   -0.1637  -10.2552 H   0  0  0  0  0  0  0  0  0  0  0  0
   10.4110   -0.2348   -7.7700 H   0  0  0  0  0  0  0  0  0  0  0  0
  1  2  2  0
  2  3  1  0
  2  4  1  0
  4  5  1  0
  5  6  1  0
  6  7  1  0
  7  8  1  0
  8  9  1  0
  9 10  1  0
 10 11  1  0
 11 12  1  0
 12 13  1  0
 13 14  2  0
 13 15  1  0
 15 16  1  0
 16  8  1  0
 16 11  1  0
  4 17  1  0
  4 18  1  0
  5 19  1  0
  6 20  1  0
  6 21  1  0
  7 22  1  0
  7 23  1  0
  8 24  1  6
 10 25  1  0
 10 26  1  0
 11 27  1  1
 16 28  1  1
M  CHG  3   3  -1  12  -1  15  -1
M  END
>  <UniqueID>  (5) 
1

>  <SMILES>  (5) 
O=C([O-])CNCC[C@@H]1OC[C@@H]2[N-]C(=O)[N-][C@@H]21

>  <Energy>  (5) 
42.304328830298104

>  <Genealogy>  (5) 
O=C([O-])CNCC[C@@H]1OC[C@@H]2[N-]C(=O)[N-][C@@H]21 (protonated)
O=C([O-])CNCC[C@@H]1OC[C@@H]2[N-]C(=O)[N-][C@@H]21 (3D coordinates assigned)
O=C([O-])CNCC[C@@H]1OC[C@@H]2[N-]C(=O)[N-][C@@H]21 (nonaromatic ring conformer: 42.304328830298104 kcal/mol)

>  <score_type>  (5) 
oracle

>  <energy>  (5) 
[-6.75, -6.73, -6.68, -6.64, -6.62, -6.35, -6.33, -6.27, -6.25, -5.98, -5.85, -5.84, -5.81, -5.81, -5.76, -5.74, -5.73, -5.7, -5.65, -5.44]

$$$$
GXTHWFWNSXFFOY-SJXMAQCXNA-K
     RDKit          3D

 28 29  0  0  0  0  0  0  0  0999 V2000
    8.7200    5.0200  -13.8220 O   0  0  0  0  0  0  0  0  0  0  0  0
    9.3880    3.9990  -14.1340 C   0  0  0  0  0  0  0  0  0  0  0  0
    8.8620    3.0780  -15.0290 O   0  0  0  0  0  1  0  0  0  0  0  0
   10.7540    3.7920  -13.5600 C   0  0  0  0  0  0  0  0  0  0  0  0
   11.1910    2.4060  -13.7720 N   0  0  0  0  0  0  0  0  0  0  0  0
   10.6940    1.9210   -7.7910 C   0  0  0  0  0  0  0  0  0  0  0  0
   11.3460    2.6290  -11.2830 C   0  0  0  0  0  0  0  0  0  0  0  0
   10.6740    1.9900  -10.0460 C   0  0  2  0  0  0  0  0  0  0  0  0
   10.8600    2.7810   -8.8950 O   0  0  0  0  0  0  0  0  0  0  0  0
   11.4160    1.6870  -12.5060 C   0  0  0  0  0  0  0  0  0  0  0  0
   11.1220    0.5580   -9.7280 C   0  0  1  0  0  0  0  0  0  0  0  0
   12.5000    0.2820  -10.1230 N   0  0  0  0  0  2  0  0  0  0  0  0
   13.2290    0.0820   -8.9350 C   0  0  0  0  0  0  0  0  0  0  0  0
   14.4580   -0.1800   -8.9180 O   0  0  0  0  0  0  0  0  0  0  0  0
   12.4540    0.2050   -7.7660 N   0  0  0  0  0  2  0  0  0  0  0  0
   11.0950    0.5110   -8.2010 C   0  0  1  0  0  0  0  0  0  0  0  0
   11.4619    4.4751  -14.0523 H   0  0  0  0  0  0  0  0  0  0  0  0
   10.7230    3.9962  -12.4796 H   0  0  0  0  0  0  0  0  0  0  0  0
   12.0720    2.4100  -14.3380 H   0  0  0  0  0  0  0  0  0  0  0  0
   11.3306    2.2593   -6.9602 H   0  0  0  0  0  0  0  0  0  0  0  0
    9.6433    1.9303   -7.4654 H   0  0  0  0  0  0  0  0  0  0  0  0
   12.3708    2.9208  -11.0099 H   0  0  0  0  0  0  0  0  0  0  0  0
   10.7288    3.4913  -11.5755 H   0  0  0  0  0  0  0  0  0  0  0  0
    9.6108    1.9391  -10.3235 H   0  0  0  0  0  0  0  0  0  0  0  0
   10.6465    0.9083  -12.3986 H   0  0  0  0  0  0  0  0  0  0  0  0
   12.4245    1.2491  -12.5394 H   0  0  0  0  0  0  0  0  0  0  0  0
   10.4808   -0.1637  -10.2552 H   0  0  0  0  0  0  0  0  0  0  0  0
   10.4110   -0.2348   -7.7700 H   0  0  0  0  0  0  0  0  0  0  0  0
  1  2  2  0
  2  3  1  0
  2  4  1  0
  4  5  1  0
  5  6  1  0
  6  7  1  0
  7  8  1  0
  8  9  1  0
  9 10  1  0
 10 11  1  0
 11 12  1  0
 12 13  1  0
 13 14  2  0
 13 15  1  0
 15 16  1  0
 16  8  1  0
 16 11  1  0
  4 17  1  0
  4 18  1  0
  5 19  1  0
  6 20  1  0
  6 21  1  0
  7 22  1  0
  7 23  1  0
  8 24  1  6
 10 25  1  0
 10 26  1  0
 11 27  1  1
 16 28  1  1
M  CHG  3   3  -1  12  -1  15  -1
M  END
>  <UniqueID>  (6) 
1

>  <SMILES>  (6) 
O=C([O-])CNCC[C@@H]1OC[C@@H]2[N-]C(=O)[N-][C@@H]21

>  <Energy>  (6) 
42.304328830298104

>  <Genealogy>  (6) 
O=C([O-])CNCC[C@@H]1OC[C@@H]2[N-]C(=O)[N-][C@@H]21 (protonated)
O=C([O-])CNCC[C@@H]1OC[C@@H]2[N-]C(=O)[N-][C@@H]21 (3D coordinates assigned)
O=C([O-])CNCC[C@@H]1OC[C@@H]2[N-]C(=O)[N-][C@@H]21 (nonaromatic ring conformer: 42.304328830298104 kcal/mol)

>  <score_type>  (6) 
oracle

>  <energy>  (6) 
[-6.75, -6.73, -6.68, -6.64, -6.62, -6.35, -6.33, -6.27, -6.25, -5.98, -5.85, -5.84, -5.81, -5.81, -5.76, -5.74, -5.73, -5.7, -5.65, -5.44]

$$$$
GXTHWFWNSXFFOY-SJXMAQCXNA-K
     RDKit          3D

 28 29  0  0  0  0  0  0  0  0999 V2000
    8.7200    5.0200  -13.8220 O   0  0  0  0  0  0  0  0  0  0  0  0
    9.3880    3.9990  -14.1340 C   0  0  0  0  0  0  0  0  0  0  0  0
    8.8620    3.0780  -15.0290 O   0  0  0  0  0  1  0  0  0  0  0  0
   10.7540    3.7920  -13.5600 C   0  0  0  0  0  0  0  0  0  0  0  0
   11.1910    2.4060  -13.7720 N   0  0  0  0  0  0  0  0  0  0  0  0
   10.6940    1.9210   -7.7910 C   0  0  0  0  0  0  0  0  0  0  0  0
   11.3460    2.6290  -11.2830 C   0  0  0  0  0  0  0  0  0  0  0  0
   10.6740    1.9900  -10.0460 C   0  0  2  0  0  0  0  0  0  0  0  0
   10.8600    2.7810   -8.8950 O   0  0  0  0  0  0  0  0  0  0  0  0
   11.4160    1.6870  -12.5060 C   0  0  0  0  0  0  0  0  0  0  0  0
   11.1220    0.5580   -9.7280 C   0  0  1  0  0  0  0  0  0  0  0  0
   12.5000    0.2820  -10.1230 N   0  0  0  0  0  2  0  0  0  0  0  0
   13.2290    0.0820   -8.9350 C   0  0  0  0  0  0  0  0  0  0  0  0
   14.4580   -0.1800   -8.9180 O   0  0  0  0  0  0  0  0  0  0  0  0
   12.4540    0.2050   -7.7660 N   0  0  0  0  0  2  0  0  0  0  0  0
   11.0950    0.5110   -8.2010 C   0  0  1  0  0  0  0  0  0  0  0  0
   11.4619    4.4751  -14.0523 H   0  0  0  0  0  0  0  0  0  0  0  0
   10.7230    3.9962  -12.4796 H   0  0  0  0  0  0  0  0  0  0  0  0
   12.0720    2.4100  -14.3380 H   0  0  0  0  0  0  0  0  0  0  0  0
   11.3306    2.2593   -6.9602 H   0  0  0  0  0  0  0  0  0  0  0  0
    9.6433    1.9303   -7.4654 H   0  0  0  0  0  0  0  0  0  0  0  0
   12.3708    2.9208  -11.0099 H   0  0  0  0  0  0  0  0  0  0  0  0
   10.7288    3.4913  -11.5755 H   0  0  0  0  0  0  0  0  0  0  0  0
    9.6108    1.9391  -10.3235 H   0  0  0  0  0  0  0  0  0  0  0  0
   10.6465    0.9083  -12.3986 H   0  0  0  0  0  0  0  0  0  0  0  0
   12.4245    1.2491  -12.5394 H   0  0  0  0  0  0  0  0  0  0  0  0
   10.4808   -0.1637  -10.2552 H   0  0  0  0  0  0  0  0  0  0  0  0
   10.4110   -0.2348   -7.7700 H   0  0  0  0  0  0  0  0  0  0  0  0
  1  2  2  0
  2  3  1  0
  2  4  1  0
  4  5  1  0
  5  6  1  0
  6  7  1  0
  7  8  1  0
  8  9  1  0
  9 10  1  0
 10 11  1  0
 11 12  1  0
 12 13  1  0
 13 14  2  0
 13 15  1  0
 15 16  1  0
 16  8  1  0
 16 11  1  0
  4 17  1  0
  4 18  1  0
  5 19  1  0
  6 20  1  0
  6 21  1  0
  7 22  1  0
  7 23  1  0
  8 24  1  6
 10 25  1  0
 10 26  1  0
 11 27  1  1
 16 28  1  1
M  CHG  3   3  -1  12  -1  15  -1
M  END
>  <UniqueID>  (7) 
1

>  <SMILES>  (7) 
O=C([O-])CNCC[C@@H]1OC[C@@H]2[N-]C(=O)[N-][C@@H]21

>  <Energy>  (7) 
42.304328830298104

>  <Genealogy>  (7) 
O=C([O-])CNCC[C@@H]1OC[C@@H]2[N-]C(=O)[N-][C@@H]21 (protonated)
O=C([O-])CNCC[C@@H]1OC[C@@H]2[N-]C(=O)[N-][C@@H]21 (3D coordinates assigned)
O=C([O-])CNCC[C@@H]1OC[C@@H]2[N-]C(=O)[N-][C@@H]21 (nonaromatic ring conformer: 42.304328830298104 kcal/mol)

>  <score_type>  (7) 
oracle

>  <energy>  (7) 
[-6.75, -6.73, -6.68, -6.64, -6.62, -6.35, -6.33, -6.27, -6.25, -5.98, -5.85, -5.84, -5.81, -5.81, -5.76, -5.74, -5.73, -5.7, -5.65, -5.44]

$$$$
GXTHWFWNSXFFOY-SJXMAQCXNA-K
     RDKit          3D

 28 29  0  0  0  0  0  0  0  0999 V2000
    8.7200    5.0200  -13.8220 O   0  0  0  0  0  0  0  0  0  0  0  0
    9.3880    3.9990  -14.1340 C   0  0  0  0  0  0  0  0  0  0  0  0
    8.8620    3.0780  -15.0290 O   0  0  0  0  0  1  0  0  0  0  0  0
   10.7540    3.7920  -13.5600 C   0  0  0  0  0  0  0  0  0  0  0  0
   11.1910    2.4060  -13.7720 N   0  0  0  0  0  0  0  0  0  0  0  0
   10.6940    1.9210   -7.7910 C   0  0  0  0  0  0  0  0  0  0  0  0
   11.3460    2.6290  -11.2830 C   0  0  0  0  0  0  0  0  0  0  0  0
   10.6740    1.9900  -10.0460 C   0  0  2  0  0  0  0  0  0  0  0  0
   10.8600    2.7810   -8.8950 O   0  0  0  0  0  0  0  0  0  0  0  0
   11.4160    1.6870  -12.5060 C   0  0  0  0  0  0  0  0  0  0  0  0
   11.1220    0.5580   -9.7280 C   0  0  1  0  0  0  0  0  0  0  0  0
   12.5000    0.2820  -10.1230 N   0  0  0  0  0  2  0  0  0  0  0  0
   13.2290    0.0820   -8.9350 C   0  0  0  0  0  0  0  0  0  0  0  0
   14.4580   -0.1800   -8.9180 O   0  0  0  0  0  0  0  0  0  0  0  0
   12.4540    0.2050   -7.7660 N   0  0  0  0  0  2  0  0  0  0  0  0
   11.0950    0.5110   -8.2010 C   0  0  1  0  0  0  0  0  0  0  0  0
   11.4619    4.4751  -14.0523 H   0  0  0  0  0  0  0  0  0  0  0  0
   10.7230    3.9962  -12.4796 H   0  0  0  0  0  0  0  0  0  0  0  0
   12.0720    2.4100  -14.3380 H   0  0  0  0  0  0  0  0  0  0  0  0
   11.3306    2.2593   -6.9602 H   0  0  0  0  0  0  0  0  0  0  0  0
    9.6433    1.9303   -7.4654 H   0  0  0  0  0  0  0  0  0  0  0  0
   12.3708    2.9208  -11.0099 H   0  0  0  0  0  0  0  0  0  0  0  0
   10.7288    3.4913  -11.5755 H   0  0  0  0  0  0  0  0  0  0  0  0
    9.6108    1.9391  -10.3235 H   0  0  0  0  0  0  0  0  0  0  0  0
   10.6465    0.9083  -12.3986 H   0  0  0  0  0  0  0  0  0  0  0  0
   12.4245    1.2491  -12.5394 H   0  0  0  0  0  0  0  0  0  0  0  0
   10.4808   -0.1637  -10.2552 H   0  0  0  0  0  0  0  0  0  0  0  0
   10.4110   -0.2348   -7.7700 H   0  0  0  0  0  0  0  0  0  0  0  0
  1  2  2  0
  2  3  1  0
  2  4  1  0
  4  5  1  0
  5  6  1  0
  6  7  1  0
  7  8  1  0
  8  9  1  0
  9 10  1  0
 10 11  1  0
 11 12  1  0
 12 13  1  0
 13 14  2  0
 13 15  1  0
 15 16  1  0
 16  8  1  0
 16 11  1  0
  4 17  1  0
  4 18  1  0
  5 19  1  0
  6 20  1  0
  6 21  1  0
  7 22  1  0
  7 23  1  0
  8 24  1  6
 10 25  1  0
 10 26  1  0
 11 27  1  1
 16 28  1  1
M  CHG  3   3  -1  12  -1  15  -1
M  END
>  <UniqueID>  (8) 
1

>  <SMILES>  (8) 
O=C([O-])CNCC[C@@H]1OC[C@@H]2[N-]C(=O)[N-][C@@H]21

>  <Energy>  (8) 
42.304328830298104

>  <Genealogy>  (8) 
O=C([O-])CNCC[C@@H]1OC[C@@H]2[N-]C(=O)[N-][C@@H]21 (protonated)
O=C([O-])CNCC[C@@H]1OC[C@@H]2[N-]C(=O)[N-][C@@H]21 (3D coordinates assigned)
O=C([O-])CNCC[C@@H]1OC[C@@H]2[N-]C(=O)[N-][C@@H]21 (nonaromatic ring conformer: 42.304328830298104 kcal/mol)

>  <score_type>  (8) 
oracle

>  <energy>  (8) 
[-6.75, -6.73, -6.68, -6.64, -6.62, -6.35, -6.33, -6.27, -6.25, -5.98, -5.85, -5.84, -5.81, -5.81, -5.76, -5.74, -5.73, -5.7, -5.65, -5.44]

$$$$
GXTHWFWNSXFFOY-SJXMAQCXNA-K
     RDKit          3D

 28 29  0  0  0  0  0  0  0  0999 V2000
    8.7200    5.0200  -13.8220 O   0  0  0  0  0  0  0  0  0  0  0  0
    9.3880    3.9990  -14.1340 C   0  0  0  0  0  0  0  0  0  0  0  0
    8.8620    3.0780  -15.0290 O   0  0  0  0  0  1  0  0  0  0  0  0
   10.7540    3.7920  -13.5600 C   0  0  0  0  0  0  0  0  0  0  0  0
   11.1910    2.4060  -13.7720 N   0  0  0  0  0  0  0  0  0  0  0  0
   10.6940    1.9210   -7.7910 C   0  0  0  0  0  0  0  0  0  0  0  0
   11.3460    2.6290  -11.2830 C   0  0  0  0  0  0  0  0  0  0  0  0
   10.6740    1.9900  -10.0460 C   0  0  2  0  0  0  0  0  0  0  0  0
   10.8600    2.7810   -8.8950 O   0  0  0  0  0  0  0  0  0  0  0  0
   11.4160    1.6870  -12.5060 C   0  0  0  0  0  0  0  0  0  0  0  0
   11.1220    0.5580   -9.7280 C   0  0  1  0  0  0  0  0  0  0  0  0
   12.5000    0.2820  -10.1230 N   0  0  0  0  0  2  0  0  0  0  0  0
   13.2290    0.0820   -8.9350 C   0  0  0  0  0  0  0  0  0  0  0  0
   14.4580   -0.1800   -8.9180 O   0  0  0  0  0  0  0  0  0  0  0  0
   12.4540    0.2050   -7.7660 N   0  0  0  0  0  2  0  0  0  0  0  0
   11.0950    0.5110   -8.2010 C   0  0  1  0  0  0  0  0  0  0  0  0
   11.4619    4.4751  -14.0523 H   0  0  0  0  0  0  0  0  0  0  0  0
   10.7230    3.9962  -12.4796 H   0  0  0  0  0  0  0  0  0  0  0  0
   12.0720    2.4100  -14.3380 H   0  0  0  0  0  0  0  0  0  0  0  0
   11.3306    2.2593   -6.9602 H   0  0  0  0  0  0  0  0  0  0  0  0
    9.6433    1.9303   -7.4654 H   0  0  0  0  0  0  0  0  0  0  0  0
   12.3708    2.9208  -11.0099 H   0  0  0  0  0  0  0  0  0  0  0  0
   10.7288    3.4913  -11.5755 H   0  0  0  0  0  0  0  0  0  0  0  0
    9.6108    1.9391  -10.3235 H   0  0  0  0  0  0  0  0  0  0  0  0
   10.6465    0.9083  -12.3986 H   0  0  0  0  0  0  0  0  0  0  0  0
   12.4245    1.2491  -12.5394 H   0  0  0  0  0  0  0  0  0  0  0  0
   10.4808   -0.1637  -10.2552 H   0  0  0  0  0  0  0  0  0  0  0  0
   10.4110   -0.2348   -7.7700 H   0  0  0  0  0  0  0  0  0  0  0  0
  1  2  2  0
  2  3  1  0
  2  4  1  0
  4  5  1  0
  5  6  1  0
  6  7  1  0
  7  8  1  0
  8  9  1  0
  9 10  1  0
 10 11  1  0
 11 12  1  0
 12 13  1  0
 13 14  2  0
 13 15  1  0
 15 16  1  0
 16  8  1  0
 16 11  1  0
  4 17  1  0
  4 18  1  0
  5 19  1  0
  6 20  1  0
  6 21  1  0
  7 22  1  0
  7 23  1  0
  8 24  1  6
 10 25  1  0
 10 26  1  0
 11 27  1  1
 16 28  1  1
M  CHG  3   3  -1  12  -1  15  -1
M  END
>  <UniqueID>  (9) 
1

>  <SMILES>  (9) 
O=C([O-])CNCC[C@@H]1OC[C@@H]2[N-]C(=O)[N-][C@@H]21

>  <Energy>  (9) 
42.304328830298104

>  <Genealogy>  (9) 
O=C([O-])CNCC[C@@H]1OC[C@@H]2[N-]C(=O)[N-][C@@H]21 (protonated)
O=C([O-])CNCC[C@@H]1OC[C@@H]2[N-]C(=O)[N-][C@@H]21 (3D coordinates assigned)
O=C([O-])CNCC[C@@H]1OC[C@@H]2[N-]C(=O)[N-][C@@H]21 (nonaromatic ring conformer: 42.304328830298104 kcal/mol)

>  <score_type>  (9) 
oracle

>  <energy>  (9) 
[-6.75, -6.73, -6.68, -6.64, -6.62, -6.35, -6.33, -6.27, -6.25, -5.98, -5.85, -5.84, -5.81, -5.81, -5.76, -5.74, -5.73, -5.7, -5.65, -5.44]

$$$$
GXTHWFWNSXFFOY-SJXMAQCXNA-K
     RDKit          3D

 28 29  0  0  0  0  0  0  0  0999 V2000
    8.7200    5.0200  -13.8220 O   0  0  0  0  0  0  0  0  0  0  0  0
    9.3880    3.9990  -14.1340 C   0  0  0  0  0  0  0  0  0  0  0  0
    8.8620    3.0780  -15.0290 O   0  0  0  0  0  1  0  0  0  0  0  0
   10.7540    3.7920  -13.5600 C   0  0  0  0  0  0  0  0  0  0  0  0
   11.1910    2.4060  -13.7720 N   0  0  0  0  0  0  0  0  0  0  0  0
   10.6940    1.9210   -7.7910 C   0  0  0  0  0  0  0  0  0  0  0  0
   11.3460    2.6290  -11.2830 C   0  0  0  0  0  0  0  0  0  0  0  0
   10.6740    1.9900  -10.0460 C   0  0  2  0  0  0  0  0  0  0  0  0
   10.8600    2.7810   -8.8950 O   0  0  0  0  0  0  0  0  0  0  0  0
   11.4160    1.6870  -12.5060 C   0  0  0  0  0  0  0  0  0  0  0  0
   11.1220    0.5580   -9.7280 C   0  0  1  0  0  0  0  0  0  0  0  0
   12.5000    0.2820  -10.1230 N   0  0  0  0  0  2  0  0  0  0  0  0
   13.2290    0.0820   -8.9350 C   0  0  0  0  0  0  0  0  0  0  0  0
   14.4580   -0.1800   -8.9180 O   0  0  0  0  0  0  0  0  0  0  0  0
   12.4540    0.2050   -7.7660 N   0  0  0  0  0  2  0  0  0  0  0  0
   11.0950    0.5110   -8.2010 C   0  0  1  0  0  0  0  0  0  0  0  0
   11.4619    4.4751  -14.0523 H   0  0  0  0  0  0  0  0  0  0  0  0
   10.7230    3.9962  -12.4796 H   0  0  0  0  0  0  0  0  0  0  0  0
   12.0720    2.4100  -14.3380 H   0  0  0  0  0  0  0  0  0  0  0  0
   11.3306    2.2593   -6.9602 H   0  0  0  0  0  0  0  0  0  0  0  0
    9.6433    1.9303   -7.4654 H   0  0  0  0  0  0  0  0  0  0  0  0
   12.3708    2.9208  -11.0099 H   0  0  0  0  0  0  0  0  0  0  0  0
   10.7288    3.4913  -11.5755 H   0  0  0  0  0  0  0  0  0  0  0  0
    9.6108    1.9391  -10.3235 H   0  0  0  0  0  0  0  0  0  0  0  0
   10.6465    0.9083  -12.3986 H   0  0  0  0  0  0  0  0  0  0  0  0
   12.4245    1.2491  -12.5394 H   0  0  0  0  0  0  0  0  0  0  0  0
   10.4808   -0.1637  -10.2552 H   0  0  0  0  0  0  0  0  0  0  0  0
   10.4110   -0.2348   -7.7700 H   0  0  0  0  0  0  0  0  0  0  0  0
  1  2  2  0
  2  3  1  0
  2  4  1  0
  4  5  1  0
  5  6  1  0
  6  7  1  0
  7  8  1  0
  8  9  1  0
  9 10  1  0
 10 11  1  0
 11 12  1  0
 12 13  1  0
 13 14  2  0
 13 15  1  0
 15 16  1  0
 16  8  1  0
 16 11  1  0
  4 17  1  0
  4 18  1  0
  5 19  1  0
  6 20  1  0
  6 21  1  0
  7 22  1  0
  7 23  1  0
  8 24  1  6
 10 25  1  0
 10 26  1  0
 11 27  1  1
 16 28  1  1
M  CHG  3   3  -1  12  -1  15  -1
M  END
>  <UniqueID>  (10) 
1

>  <SMILES>  (10) 
O=C([O-])CNCC[C@@H]1OC[C@@H]2[N-]C(=O)[N-][C@@H]21

>  <Energy>  (10) 
42.304328830298104

>  <Genealogy>  (10) 
O=C([O-])CNCC[C@@H]1OC[C@@H]2[N-]C(=O)[N-][C@@H]21 (protonated)
O=C([O-])CNCC[C@@H]1OC[C@@H]2[N-]C(=O)[N-][C@@H]21 (3D coordinates assigned)
O=C([O-])CNCC[C@@H]1OC[C@@H]2[N-]C(=O)[N-][C@@H]21 (nonaromatic ring conformer: 42.304328830298104 kcal/mol)

>  <score_type>  (10) 
oracle

>  <energy>  (10) 
[-6.75, -6.73, -6.68, -6.64, -6.62, -6.35, -6.33, -6.27, -6.25, -5.98, -5.85, -5.84, -5.81, -5.81, -5.76, -5.74, -5.73, -5.7, -5.65, -5.44]

$$$$
GXTHWFWNSXFFOY-SJXMAQCXNA-K
     RDKit          3D

 28 29  0  0  0  0  0  0  0  0999 V2000
    8.7200    5.0200  -13.8220 O   0  0  0  0  0  0  0  0  0  0  0  0
    9.3880    3.9990  -14.1340 C   0  0  0  0  0  0  0  0  0  0  0  0
    8.8620    3.0780  -15.0290 O   0  0  0  0  0  1  0  0  0  0  0  0
   10.7540    3.7920  -13.5600 C   0  0  0  0  0  0  0  0  0  0  0  0
   11.1910    2.4060  -13.7720 N   0  0  0  0  0  0  0  0  0  0  0  0
   10.6940    1.9210   -7.7910 C   0  0  0  0  0  0  0  0  0  0  0  0
   11.3460    2.6290  -11.2830 C   0  0  0  0  0  0  0  0  0  0  0  0
   10.6740    1.9900  -10.0460 C   0  0  2  0  0  0  0  0  0  0  0  0
   10.8600    2.7810   -8.8950 O   0  0  0  0  0  0  0  0  0  0  0  0
   11.4160    1.6870  -12.5060 C   0  0  0  0  0  0  0  0  0  0  0  0
   11.1220    0.5580   -9.7280 C   0  0  1  0  0  0  0  0  0  0  0  0
   12.5000    0.2820  -10.1230 N   0  0  0  0  0  2  0  0  0  0  0  0
   13.2290    0.0820   -8.9350 C   0  0  0  0  0  0  0  0  0  0  0  0
   14.4580   -0.1800   -8.9180 O   0  0  0  0  0  0  0  0  0  0  0  0
   12.4540    0.2050   -7.7660 N   0  0  0  0  0  2  0  0  0  0  0  0
   11.0950    0.5110   -8.2010 C   0  0  1  0  0  0  0  0  0  0  0  0
   11.4619    4.4751  -14.0523 H   0  0  0  0  0  0  0  0  0  0  0  0
   10.7230    3.9962  -12.4796 H   0  0  0  0  0  0  0  0  0  0  0  0
   12.0720    2.4100  -14.3380 H   0  0  0  0  0  0  0  0  0  0  0  0
   11.3306    2.2593   -6.9602 H   0  0  0  0  0  0  0  0  0  0  0  0
    9.6433    1.9303   -7.4654 H   0  0  0  0  0  0  0  0  0  0  0  0
   12.3708    2.9208  -11.0099 H   0  0  0  0  0  0  0  0  0  0  0  0
   10.7288    3.4913  -11.5755 H   0  0  0  0  0  0  0  0  0  0  0  0
    9.6108    1.9391  -10.3235 H   0  0  0  0  0  0  0  0  0  0  0  0
   10.6465    0.9083  -12.3986 H   0  0  0  0  0  0  0  0  0  0  0  0
   12.4245    1.2491  -12.5394 H   0  0  0  0  0  0  0  0  0  0  0  0
   10.4808   -0.1637  -10.2552 H   0  0  0  0  0  0  0  0  0  0  0  0
   10.4110   -0.2348   -7.7700 H   0  0  0  0  0  0  0  0  0  0  0  0
  1  2  2  0
  2  3  1  0
  2  4  1  0
  4  5  1  0
  5  6  1  0
  6  7  1  0
  7  8  1  0
  8  9  1  0
  9 10  1  0
 10 11  1  0
 11 12  1  0
 12 13  1  0
 13 14  2  0
 13 15  1  0
 15 16  1  0
 16  8  1  0
 16 11  1  0
  4 17  1  0
  4 18  1  0
  5 19  1  0
  6 20  1  0
  6 21  1  0
  7 22  1  0
  7 23  1  0
  8 24  1  6
 10 25  1  0
 10 26  1  0
 11 27  1  1
 16 28  1  1
M  CHG  3   3  -1  12  -1  15  -1
M  END
>  <UniqueID>  (11) 
1

>  <SMILES>  (11) 
O=C([O-])CNCC[C@@H]1OC[C@@H]2[N-]C(=O)[N-][C@@H]21

>  <Energy>  (11) 
42.304328830298104

>  <Genealogy>  (11) 
O=C([O-])CNCC[C@@H]1OC[C@@H]2[N-]C(=O)[N-][C@@H]21 (protonated)
O=C([O-])CNCC[C@@H]1OC[C@@H]2[N-]C(=O)[N-][C@@H]21 (3D coordinates assigned)
O=C([O-])CNCC[C@@H]1OC[C@@H]2[N-]C(=O)[N-][C@@H]21 (nonaromatic ring conformer: 42.304328830298104 kcal/mol)

>  <score_type>  (11) 
oracle

>  <energy>  (11) 
[-6.75, -6.73, -6.68, -6.64, -6.62, -6.35, -6.33, -6.27, -6.25, -5.98, -5.85, -5.84, -5.81, -5.81, -5.76, -5.74, -5.73, -5.7, -5.65, -5.44]

$$$$
GXTHWFWNSXFFOY-SJXMAQCXNA-K
     RDKit          3D

 28 29  0  0  0  0  0  0  0  0999 V2000
    8.7200    5.0200  -13.8220 O   0  0  0  0  0  0  0  0  0  0  0  0
    9.3880    3.9990  -14.1340 C   0  0  0  0  0  0  0  0  0  0  0  0
    8.8620    3.0780  -15.0290 O   0  0  0  0  0  1  0  0  0  0  0  0
   10.7540    3.7920  -13.5600 C   0  0  0  0  0  0  0  0  0  0  0  0
   11.1910    2.4060  -13.7720 N   0  0  0  0  0  0  0  0  0  0  0  0
   10.6940    1.9210   -7.7910 C   0  0  0  0  0  0  0  0  0  0  0  0
   11.3460    2.6290  -11.2830 C   0  0  0  0  0  0  0  0  0  0  0  0
   10.6740    1.9900  -10.0460 C   0  0  2  0  0  0  0  0  0  0  0  0
   10.8600    2.7810   -8.8950 O   0  0  0  0  0  0  0  0  0  0  0  0
   11.4160    1.6870  -12.5060 C   0  0  0  0  0  0  0  0  0  0  0  0
   11.1220    0.5580   -9.7280 C   0  0  1  0  0  0  0  0  0  0  0  0
   12.5000    0.2820  -10.1230 N   0  0  0  0  0  2  0  0  0  0  0  0
   13.2290    0.0820   -8.9350 C   0  0  0  0  0  0  0  0  0  0  0  0
   14.4580   -0.1800   -8.9180 O   0  0  0  0  0  0  0  0  0  0  0  0
   12.4540    0.2050   -7.7660 N   0  0  0  0  0  2  0  0  0  0  0  0
   11.0950    0.5110   -8.2010 C   0  0  1  0  0  0  0  0  0  0  0  0
   11.4619    4.4751  -14.0523 H   0  0  0  0  0  0  0  0  0  0  0  0
   10.7230    3.9962  -12.4796 H   0  0  0  0  0  0  0  0  0  0  0  0
   12.0720    2.4100  -14.3380 H   0  0  0  0  0  0  0  0  0  0  0  0
   11.3306    2.2593   -6.9602 H   0  0  0  0  0  0  0  0  0  0  0  0
    9.6433    1.9303   -7.4654 H   0  0  0  0  0  0  0  0  0  0  0  0
   12.3708    2.9208  -11.0099 H   0  0  0  0  0  0  0  0  0  0  0  0
   10.7288    3.4913  -11.5755 H   0  0  0  0  0  0  0  0  0  0  0  0
    9.6108    1.9391  -10.3235 H   0  0  0  0  0  0  0  0  0  0  0  0
   10.6465    0.9083  -12.3986 H   0  0  0  0  0  0  0  0  0  0  0  0
   12.4245    1.2491  -12.5394 H   0  0  0  0  0  0  0  0  0  0  0  0
   10.4808   -0.1637  -10.2552 H   0  0  0  0  0  0  0  0  0  0  0  0
   10.4110   -0.2348   -7.7700 H   0  0  0  0  0  0  0  0  0  0  0  0
  1  2  2  0
  2  3  1  0
  2  4  1  0
  4  5  1  0
  5  6  1  0
  6  7  1  0
  7  8  1  0
  8  9  1  0
  9 10  1  0
 10 11  1  0
 11 12  1  0
 12 13  1  0
 13 14  2  0
 13 15  1  0
 15 16  1  0
 16  8  1  0
 16 11  1  0
  4 17  1  0
  4 18  1  0
  5 19  1  0
  6 20  1  0
  6 21  1  0
  7 22  1  0
  7 23  1  0
  8 24  1  6
 10 25  1  0
 10 26  1  0
 11 27  1  1
 16 28  1  1
M  CHG  3   3  -1  12  -1  15  -1
M  END
>  <UniqueID>  (12) 
1

>  <SMILES>  (12) 
O=C([O-])CNCC[C@@H]1OC[C@@H]2[N-]C(=O)[N-][C@@H]21

>  <Energy>  (12) 
42.304328830298104

>  <Genealogy>  (12) 
O=C([O-])CNCC[C@@H]1OC[C@@H]2[N-]C(=O)[N-][C@@H]21 (protonated)
O=C([O-])CNCC[C@@H]1OC[C@@H]2[N-]C(=O)[N-][C@@H]21 (3D coordinates assigned)
O=C([O-])CNCC[C@@H]1OC[C@@H]2[N-]C(=O)[N-][C@@H]21 (nonaromatic ring conformer: 42.304328830298104 kcal/mol)

>  <score_type>  (12) 
oracle

>  <energy>  (12) 
[-6.75, -6.73, -6.68, -6.64, -6.62, -6.35, -6.33, -6.27, -6.25, -5.98, -5.85, -5.84, -5.81, -5.81, -5.76, -5.74, -5.73, -5.7, -5.65, -5.44]

$$$$
GXTHWFWNSXFFOY-SJXMAQCXNA-K
     RDKit          3D

 28 29  0  0  0  0  0  0  0  0999 V2000
    8.7200    5.0200  -13.8220 O   0  0  0  0  0  0  0  0  0  0  0  0
    9.3880    3.9990  -14.1340 C   0  0  0  0  0  0  0  0  0  0  0  0
    8.8620    3.0780  -15.0290 O   0  0  0  0  0  1  0  0  0  0  0  0
   10.7540    3.7920  -13.5600 C   0  0  0  0  0  0  0  0  0  0  0  0
   11.1910    2.4060  -13.7720 N   0  0  0  0  0  0  0  0  0  0  0  0
   10.6940    1.9210   -7.7910 C   0  0  0  0  0  0  0  0  0  0  0  0
   11.3460    2.6290  -11.2830 C   0  0  0  0  0  0  0  0  0  0  0  0
   10.6740    1.9900  -10.0460 C   0  0  2  0  0  0  0  0  0  0  0  0
   10.8600    2.7810   -8.8950 O   0  0  0  0  0  0  0  0  0  0  0  0
   11.4160    1.6870  -12.5060 C   0  0  0  0  0  0  0  0  0  0  0  0
   11.1220    0.5580   -9.7280 C   0  0  1  0  0  0  0  0  0  0  0  0
   12.5000    0.2820  -10.1230 N   0  0  0  0  0  2  0  0  0  0  0  0
   13.2290    0.0820   -8.9350 C   0  0  0  0  0  0  0  0  0  0  0  0
   14.4580   -0.1800   -8.9180 O   0  0  0  0  0  0  0  0  0  0  0  0
   12.4540    0.2050   -7.7660 N   0  0  0  0  0  2  0  0  0  0  0  0
   11.0950    0.5110   -8.2010 C   0  0  1  0  0  0  0  0  0  0  0  0
   11.4619    4.4751  -14.0523 H   0  0  0  0  0  0  0  0  0  0  0  0
   10.7230    3.9962  -12.4796 H   0  0  0  0  0  0  0  0  0  0  0  0
   12.0720    2.4100  -14.3380 H   0  0  0  0  0  0  0  0  0  0  0  0
   11.3306    2.2593   -6.9602 H   0  0  0  0  0  0  0  0  0  0  0  0
    9.6433    1.9303   -7.4654 H   0  0  0  0  0  0  0  0  0  0  0  0
   12.3708    2.9208  -11.0099 H   0  0  0  0  0  0  0  0  0  0  0  0
   10.7288    3.4913  -11.5755 H   0  0  0  0  0  0  0  0  0  0  0  0
    9.6108    1.9391  -10.3235 H   0  0  0  0  0  0  0  0  0  0  0  0
   10.6465    0.9083  -12.3986 H   0  0  0  0  0  0  0  0  0  0  0  0
   12.4245    1.2491  -12.5394 H   0  0  0  0  0  0  0  0  0  0  0  0
   10.4808   -0.1637  -10.2552 H   0  0  0  0  0  0  0  0  0  0  0  0
   10.4110   -0.2348   -7.7700 H   0  0  0  0  0  0  0  0  0  0  0  0
  1  2  2  0
  2  3  1  0
  2  4  1  0
  4  5  1  0
  5  6  1  0
  6  7  1  0
  7  8  1  0
  8  9  1  0
  9 10  1  0
 10 11  1  0
 11 12  1  0
 12 13  1  0
 13 14  2  0
 13 15  1  0
 15 16  1  0
 16  8  1  0
 16 11  1  0
  4 17  1  0
  4 18  1  0
  5 19  1  0
  6 20  1  0
  6 21  1  0
  7 22  1  0
  7 23  1  0
  8 24  1  6
 10 25  1  0
 10 26  1  0
 11 27  1  1
 16 28  1  1
M  CHG  3   3  -1  12  -1  15  -1
M  END
>  <UniqueID>  (13) 
1

>  <SMILES>  (13) 
O=C([O-])CNCC[C@@H]1OC[C@@H]2[N-]C(=O)[N-][C@@H]21

>  <Energy>  (13) 
42.304328830298104

>  <Genealogy>  (13) 
O=C([O-])CNCC[C@@H]1OC[C@@H]2[N-]C(=O)[N-][C@@H]21 (protonated)
O=C([O-])CNCC[C@@H]1OC[C@@H]2[N-]C(=O)[N-][C@@H]21 (3D coordinates assigned)
O=C([O-])CNCC[C@@H]1OC[C@@H]2[N-]C(=O)[N-][C@@H]21 (nonaromatic ring conformer: 42.304328830298104 kcal/mol)

>  <score_type>  (13) 
oracle

>  <energy>  (13) 
[-6.75, -6.73, -6.68, -6.64, -6.62, -6.35, -6.33, -6.27, -6.25, -5.98, -5.85, -5.84, -5.81, -5.81, -5.76, -5.74, -5.73, -5.7, -5.65, -5.44]

$$$$
GXTHWFWNSXFFOY-SJXMAQCXNA-K
     RDKit          3D

 28 29  0  0  0  0  0  0  0  0999 V2000
    8.7200    5.0200  -13.8220 O   0  0  0  0  0  0  0  0  0  0  0  0
    9.3880    3.9990  -14.1340 C   0  0  0  0  0  0  0  0  0  0  0  0
    8.8620    3.0780  -15.0290 O   0  0  0  0  0  1  0  0  0  0  0  0
   10.7540    3.7920  -13.5600 C   0  0  0  0  0  0  0  0  0  0  0  0
   11.1910    2.4060  -13.7720 N   0  0  0  0  0  0  0  0  0  0  0  0
   10.6940    1.9210   -7.7910 C   0  0  0  0  0  0  0  0  0  0  0  0
   11.3460    2.6290  -11.2830 C   0  0  0  0  0  0  0  0  0  0  0  0
   10.6740    1.9900  -10.0460 C   0  0  2  0  0  0  0  0  0  0  0  0
   10.8600    2.7810   -8.8950 O   0  0  0  0  0  0  0  0  0  0  0  0
   11.4160    1.6870  -12.5060 C   0  0  0  0  0  0  0  0  0  0  0  0
   11.1220    0.5580   -9.7280 C   0  0  1  0  0  0  0  0  0  0  0  0
   12.5000    0.2820  -10.1230 N   0  0  0  0  0  2  0  0  0  0  0  0
   13.2290    0.0820   -8.9350 C   0  0  0  0  0  0  0  0  0  0  0  0
   14.4580   -0.1800   -8.9180 O   0  0  0  0  0  0  0  0  0  0  0  0
   12.4540    0.2050   -7.7660 N   0  0  0  0  0  2  0  0  0  0  0  0
   11.0950    0.5110   -8.2010 C   0  0  1  0  0  0  0  0  0  0  0  0
   11.4619    4.4751  -14.0523 H   0  0  0  0  0  0  0  0  0  0  0  0
   10.7230    3.9962  -12.4796 H   0  0  0  0  0  0  0  0  0  0  0  0
   12.0720    2.4100  -14.3380 H   0  0  0  0  0  0  0  0  0  0  0  0
   11.3306    2.2593   -6.9602 H   0  0  0  0  0  0  0  0  0  0  0  0
    9.6433    1.9303   -7.4654 H   0  0  0  0  0  0  0  0  0  0  0  0
   12.3708    2.9208  -11.0099 H   0  0  0  0  0  0  0  0  0  0  0  0
   10.7288    3.4913  -11.5755 H   0  0  0  0  0  0  0  0  0  0  0  0
    9.6108    1.9391  -10.3235 H   0  0  0  0  0  0  0  0  0  0  0  0
   10.6465    0.9083  -12.3986 H   0  0  0  0  0  0  0  0  0  0  0  0
   12.4245    1.2491  -12.5394 H   0  0  0  0  0  0  0  0  0  0  0  0
   10.4808   -0.1637  -10.2552 H   0  0  0  0  0  0  0  0  0  0  0  0
   10.4110   -0.2348   -7.7700 H   0  0  0  0  0  0  0  0  0  0  0  0
  1  2  2  0
  2  3  1  0
  2  4  1  0
  4  5  1  0
  5  6  1  0
  6  7  1  0
  7  8  1  0
  8  9  1  0
  9 10  1  0
 10 11  1  0
 11 12  1  0
 12 13  1  0
 13 14  2  0
 13 15  1  0
 15 16  1  0
 16  8  1  0
 16 11  1  0
  4 17  1  0
  4 18  1  0
  5 19  1  0
  6 20  1  0
  6 21  1  0
  7 22  1  0
  7 23  1  0
  8 24  1  6
 10 25  1  0
 10 26  1  0
 11 27  1  1
 16 28  1  1
M  CHG  3   3  -1  12  -1  15  -1
M  END
>  <UniqueID>  (14) 
1

>  <SMILES>  (14) 
O=C([O-])CNCC[C@@H]1OC[C@@H]2[N-]C(=O)[N-][C@@H]21

>  <Energy>  (14) 
42.304328830298104

>  <Genealogy>  (14) 
O=C([O-])CNCC[C@@H]1OC[C@@H]2[N-]C(=O)[N-][C@@H]21 (protonated)
O=C([O-])CNCC[C@@H]1OC[C@@H]2[N-]C(=O)[N-][C@@H]21 (3D coordinates assigned)
O=C([O-])CNCC[C@@H]1OC[C@@H]2[N-]C(=O)[N-][C@@H]21 (nonaromatic ring conformer: 42.304328830298104 kcal/mol)

>  <score_type>  (14) 
oracle

>  <energy>  (14) 
[-6.75, -6.73, -6.68, -6.64, -6.62, -6.35, -6.33, -6.27, -6.25, -5.98, -5.85, -5.84, -5.81, -5.81, -5.76, -5.74, -5.73, -5.7, -5.65, -5.44]

$$$$
GXTHWFWNSXFFOY-SJXMAQCXNA-K
     RDKit          3D

 28 29  0  0  0  0  0  0  0  0999 V2000
    8.7200    5.0200  -13.8220 O   0  0  0  0  0  0  0  0  0  0  0  0
    9.3880    3.9990  -14.1340 C   0  0  0  0  0  0  0  0  0  0  0  0
    8.8620    3.0780  -15.0290 O   0  0  0  0  0  1  0  0  0  0  0  0
   10.7540    3.7920  -13.5600 C   0  0  0  0  0  0  0  0  0  0  0  0
   11.1910    2.4060  -13.7720 N   0  0  0  0  0  0  0  0  0  0  0  0
   10.6940    1.9210   -7.7910 C   0  0  0  0  0  0  0  0  0  0  0  0
   11.3460    2.6290  -11.2830 C   0  0  0  0  0  0  0  0  0  0  0  0
   10.6740    1.9900  -10.0460 C   0  0  2  0  0  0  0  0  0  0  0  0
   10.8600    2.7810   -8.8950 O   0  0  0  0  0  0  0  0  0  0  0  0
   11.4160    1.6870  -12.5060 C   0  0  0  0  0  0  0  0  0  0  0  0
   11.1220    0.5580   -9.7280 C   0  0  1  0  0  0  0  0  0  0  0  0
   12.5000    0.2820  -10.1230 N   0  0  0  0  0  2  0  0  0  0  0  0
   13.2290    0.0820   -8.9350 C   0  0  0  0  0  0  0  0  0  0  0  0
   14.4580   -0.1800   -8.9180 O   0  0  0  0  0  0  0  0  0  0  0  0
   12.4540    0.2050   -7.7660 N   0  0  0  0  0  2  0  0  0  0  0  0
   11.0950    0.5110   -8.2010 C   0  0  1  0  0  0  0  0  0  0  0  0
   11.4619    4.4751  -14.0523 H   0  0  0  0  0  0  0  0  0  0  0  0
   10.7230    3.9962  -12.4796 H   0  0  0  0  0  0  0  0  0  0  0  0
   12.0720    2.4100  -14.3380 H   0  0  0  0  0  0  0  0  0  0  0  0
   11.3306    2.2593   -6.9602 H   0  0  0  0  0  0  0  0  0  0  0  0
    9.6433    1.9303   -7.4654 H   0  0  0  0  0  0  0  0  0  0  0  0
   12.3708    2.9208  -11.0099 H   0  0  0  0  0  0  0  0  0  0  0  0
   10.7288    3.4913  -11.5755 H   0  0  0  0  0  0  0  0  0  0  0  0
    9.6108    1.9391  -10.3235 H   0  0  0  0  0  0  0  0  0  0  0  0
   10.6465    0.9083  -12.3986 H   0  0  0  0  0  0  0  0  0  0  0  0
   12.4245    1.2491  -12.5394 H   0  0  0  0  0  0  0  0  0  0  0  0
   10.4808   -0.1637  -10.2552 H   0  0  0  0  0  0  0  0  0  0  0  0
   10.4110   -0.2348   -7.7700 H   0  0  0  0  0  0  0  0  0  0  0  0
  1  2  2  0
  2  3  1  0
  2  4  1  0
  4  5  1  0
  5  6  1  0
  6  7  1  0
  7  8  1  0
  8  9  1  0
  9 10  1  0
 10 11  1  0
 11 12  1  0
 12 13  1  0
 13 14  2  0
 13 15  1  0
 15 16  1  0
 16  8  1  0
 16 11  1  0
  4 17  1  0
  4 18  1  0
  5 19  1  0
  6 20  1  0
  6 21  1  0
  7 22  1  0
  7 23  1  0
  8 24  1  6
 10 25  1  0
 10 26  1  0
 11 27  1  1
 16 28  1  1
M  CHG  3   3  -1  12  -1  15  -1
M  END
>  <UniqueID>  (15) 
1

>  <SMILES>  (15) 
O=C([O-])CNCC[C@@H]1OC[C@@H]2[N-]C(=O)[N-][C@@H]21

>  <Energy>  (15) 
42.304328830298104

>  <Genealogy>  (15) 
O=C([O-])CNCC[C@@H]1OC[C@@H]2[N-]C(=O)[N-][C@@H]21 (protonated)
O=C([O-])CNCC[C@@H]1OC[C@@H]2[N-]C(=O)[N-][C@@H]21 (3D coordinates assigned)
O=C([O-])CNCC[C@@H]1OC[C@@H]2[N-]C(=O)[N-][C@@H]21 (nonaromatic ring conformer: 42.304328830298104 kcal/mol)

>  <score_type>  (15) 
oracle

>  <energy>  (15) 
[-6.75, -6.73, -6.68, -6.64, -6.62, -6.35, -6.33, -6.27, -6.25, -5.98, -5.85, -5.84, -5.81, -5.81, -5.76, -5.74, -5.73, -5.7, -5.65, -5.44]

$$$$
GXTHWFWNSXFFOY-SJXMAQCXNA-K
     RDKit          3D

 28 29  0  0  0  0  0  0  0  0999 V2000
    8.7200    5.0200  -13.8220 O   0  0  0  0  0  0  0  0  0  0  0  0
    9.3880    3.9990  -14.1340 C   0  0  0  0  0  0  0  0  0  0  0  0
    8.8620    3.0780  -15.0290 O   0  0  0  0  0  1  0  0  0  0  0  0
   10.7540    3.7920  -13.5600 C   0  0  0  0  0  0  0  0  0  0  0  0
   11.1910    2.4060  -13.7720 N   0  0  0  0  0  0  0  0  0  0  0  0
   10.6940    1.9210   -7.7910 C   0  0  0  0  0  0  0  0  0  0  0  0
   11.3460    2.6290  -11.2830 C   0  0  0  0  0  0  0  0  0  0  0  0
   10.6740    1.9900  -10.0460 C   0  0  2  0  0  0  0  0  0  0  0  0
   10.8600    2.7810   -8.8950 O   0  0  0  0  0  0  0  0  0  0  0  0
   11.4160    1.6870  -12.5060 C   0  0  0  0  0  0  0  0  0  0  0  0
   11.1220    0.5580   -9.7280 C   0  0  1  0  0  0  0  0  0  0  0  0
   12.5000    0.2820  -10.1230 N   0  0  0  0  0  2  0  0  0  0  0  0
   13.2290    0.0820   -8.9350 C   0  0  0  0  0  0  0  0  0  0  0  0
   14.4580   -0.1800   -8.9180 O   0  0  0  0  0  0  0  0  0  0  0  0
   12.4540    0.2050   -7.7660 N   0  0  0  0  0  2  0  0  0  0  0  0
   11.0950    0.5110   -8.2010 C   0  0  1  0  0  0  0  0  0  0  0  0
   11.4619    4.4751  -14.0523 H   0  0  0  0  0  0  0  0  0  0  0  0
   10.7230    3.9962  -12.4796 H   0  0  0  0  0  0  0  0  0  0  0  0
   12.0720    2.4100  -14.3380 H   0  0  0  0  0  0  0  0  0  0  0  0
   11.3306    2.2593   -6.9602 H   0  0  0  0  0  0  0  0  0  0  0  0
    9.6433    1.9303   -7.4654 H   0  0  0  0  0  0  0  0  0  0  0  0
   12.3708    2.9208  -11.0099 H   0  0  0  0  0  0  0  0  0  0  0  0
   10.7288    3.4913  -11.5755 H   0  0  0  0  0  0  0  0  0  0  0  0
    9.6108    1.9391  -10.3235 H   0  0  0  0  0  0  0  0  0  0  0  0
   10.6465    0.9083  -12.3986 H   0  0  0  0  0  0  0  0  0  0  0  0
   12.4245    1.2491  -12.5394 H   0  0  0  0  0  0  0  0  0  0  0  0
   10.4808   -0.1637  -10.2552 H   0  0  0  0  0  0  0  0  0  0  0  0
   10.4110   -0.2348   -7.7700 H   0  0  0  0  0  0  0  0  0  0  0  0
  1  2  2  0
  2  3  1  0
  2  4  1  0
  4  5  1  0
  5  6  1  0
  6  7  1  0
  7  8  1  0
  8  9  1  0
  9 10  1  0
 10 11  1  0
 11 12  1  0
 12 13  1  0
 13 14  2  0
 13 15  1  0
 15 16  1  0
 16  8  1  0
 16 11  1  0
  4 17  1  0
  4 18  1  0
  5 19  1  0
  6 20  1  0
  6 21  1  0
  7 22  1  0
  7 23  1  0
  8 24  1  6
 10 25  1  0
 10 26  1  0
 11 27  1  1
 16 28  1  1
M  CHG  3   3  -1  12  -1  15  -1
M  END
>  <UniqueID>  (16) 
1

>  <SMILES>  (16) 
O=C([O-])CNCC[C@@H]1OC[C@@H]2[N-]C(=O)[N-][C@@H]21

>  <Energy>  (16) 
42.304328830298104

>  <Genealogy>  (16) 
O=C([O-])CNCC[C@@H]1OC[C@@H]2[N-]C(=O)[N-][C@@H]21 (protonated)
O=C([O-])CNCC[C@@H]1OC[C@@H]2[N-]C(=O)[N-][C@@H]21 (3D coordinates assigned)
O=C([O-])CNCC[C@@H]1OC[C@@H]2[N-]C(=O)[N-][C@@H]21 (nonaromatic ring conformer: 42.304328830298104 kcal/mol)

>  <score_type>  (16) 
oracle

>  <energy>  (16) 
[-6.75, -6.73, -6.68, -6.64, -6.62, -6.35, -6.33, -6.27, -6.25, -5.98, -5.85, -5.84, -5.81, -5.81, -5.76, -5.74, -5.73, -5.7, -5.65, -5.44]

$$$$
GXTHWFWNSXFFOY-SJXMAQCXNA-K
     RDKit          3D

 28 29  0  0  0  0  0  0  0  0999 V2000
    8.7200    5.0200  -13.8220 O   0  0  0  0  0  0  0  0  0  0  0  0
    9.3880    3.9990  -14.1340 C   0  0  0  0  0  0  0  0  0  0  0  0
    8.8620    3.0780  -15.0290 O   0  0  0  0  0  1  0  0  0  0  0  0
   10.7540    3.7920  -13.5600 C   0  0  0  0  0  0  0  0  0  0  0  0
   11.1910    2.4060  -13.7720 N   0  0  0  0  0  0  0  0  0  0  0  0
   10.6940    1.9210   -7.7910 C   0  0  0  0  0  0  0  0  0  0  0  0
   11.3460    2.6290  -11.2830 C   0  0  0  0  0  0  0  0  0  0  0  0
   10.6740    1.9900  -10.0460 C   0  0  2  0  0  0  0  0  0  0  0  0
   10.8600    2.7810   -8.8950 O   0  0  0  0  0  0  0  0  0  0  0  0
   11.4160    1.6870  -12.5060 C   0  0  0  0  0  0  0  0  0  0  0  0
   11.1220    0.5580   -9.7280 C   0  0  1  0  0  0  0  0  0  0  0  0
   12.5000    0.2820  -10.1230 N   0  0  0  0  0  2  0  0  0  0  0  0
   13.2290    0.0820   -8.9350 C   0  0  0  0  0  0  0  0  0  0  0  0
   14.4580   -0.1800   -8.9180 O   0  0  0  0  0  0  0  0  0  0  0  0
   12.4540    0.2050   -7.7660 N   0  0  0  0  0  2  0  0  0  0  0  0
   11.0950    0.5110   -8.2010 C   0  0  1  0  0  0  0  0  0  0  0  0
   11.4619    4.4751  -14.0523 H   0  0  0  0  0  0  0  0  0  0  0  0
   10.7230    3.9962  -12.4796 H   0  0  0  0  0  0  0  0  0  0  0  0
   12.0720    2.4100  -14.3380 H   0  0  0  0  0  0  0  0  0  0  0  0
   11.3306    2.2593   -6.9602 H   0  0  0  0  0  0  0  0  0  0  0  0
    9.6433    1.9303   -7.4654 H   0  0  0  0  0  0  0  0  0  0  0  0
   12.3708    2.9208  -11.0099 H   0  0  0  0  0  0  0  0  0  0  0  0
   10.7288    3.4913  -11.5755 H   0  0  0  0  0  0  0  0  0  0  0  0
    9.6108    1.9391  -10.3235 H   0  0  0  0  0  0  0  0  0  0  0  0
   10.6465    0.9083  -12.3986 H   0  0  0  0  0  0  0  0  0  0  0  0
   12.4245    1.2491  -12.5394 H   0  0  0  0  0  0  0  0  0  0  0  0
   10.4808   -0.1637  -10.2552 H   0  0  0  0  0  0  0  0  0  0  0  0
   10.4110   -0.2348   -7.7700 H   0  0  0  0  0  0  0  0  0  0  0  0
  1  2  2  0
  2  3  1  0
  2  4  1  0
  4  5  1  0
  5  6  1  0
  6  7  1  0
  7  8  1  0
  8  9  1  0
  9 10  1  0
 10 11  1  0
 11 12  1  0
 12 13  1  0
 13 14  2  0
 13 15  1  0
 15 16  1  0
 16  8  1  0
 16 11  1  0
  4 17  1  0
  4 18  1  0
  5 19  1  0
  6 20  1  0
  6 21  1  0
  7 22  1  0
  7 23  1  0
  8 24  1  6
 10 25  1  0
 10 26  1  0
 11 27  1  1
 16 28  1  1
M  CHG  3   3  -1  12  -1  15  -1
M  END
>  <UniqueID>  (17) 
1

>  <SMILES>  (17) 
O=C([O-])CNCC[C@@H]1OC[C@@H]2[N-]C(=O)[N-][C@@H]21

>  <Energy>  (17) 
42.304328830298104

>  <Genealogy>  (17) 
O=C([O-])CNCC[C@@H]1OC[C@@H]2[N-]C(=O)[N-][C@@H]21 (protonated)
O=C([O-])CNCC[C@@H]1OC[C@@H]2[N-]C(=O)[N-][C@@H]21 (3D coordinates assigned)
O=C([O-])CNCC[C@@H]1OC[C@@H]2[N-]C(=O)[N-][C@@H]21 (nonaromatic ring conformer: 42.304328830298104 kcal/mol)

>  <score_type>  (17) 
oracle

>  <energy>  (17) 
[-6.75, -6.73, -6.68, -6.64, -6.62, -6.35, -6.33, -6.27, -6.25, -5.98, -5.85, -5.84, -5.81, -5.81, -5.76, -5.74, -5.73, -5.7, -5.65, -5.44]

$$$$
GXTHWFWNSXFFOY-SJXMAQCXNA-K
     RDKit          3D

 28 29  0  0  0  0  0  0  0  0999 V2000
    8.7200    5.0200  -13.8220 O   0  0  0  0  0  0  0  0  0  0  0  0
    9.3880    3.9990  -14.1340 C   0  0  0  0  0  0  0  0  0  0  0  0
    8.8620    3.0780  -15.0290 O   0  0  0  0  0  1  0  0  0  0  0  0
   10.7540    3.7920  -13.5600 C   0  0  0  0  0  0  0  0  0  0  0  0
   11.1910    2.4060  -13.7720 N   0  0  0  0  0  0  0  0  0  0  0  0
   10.6940    1.9210   -7.7910 C   0  0  0  0  0  0  0  0  0  0  0  0
   11.3460    2.6290  -11.2830 C   0  0  0  0  0  0  0  0  0  0  0  0
   10.6740    1.9900  -10.0460 C   0  0  2  0  0  0  0  0  0  0  0  0
   10.8600    2.7810   -8.8950 O   0  0  0  0  0  0  0  0  0  0  0  0
   11.4160    1.6870  -12.5060 C   0  0  0  0  0  0  0  0  0  0  0  0
   11.1220    0.5580   -9.7280 C   0  0  1  0  0  0  0  0  0  0  0  0
   12.5000    0.2820  -10.1230 N   0  0  0  0  0  2  0  0  0  0  0  0
   13.2290    0.0820   -8.9350 C   0  0  0  0  0  0  0  0  0  0  0  0
   14.4580   -0.1800   -8.9180 O   0  0  0  0  0  0  0  0  0  0  0  0
   12.4540    0.2050   -7.7660 N   0  0  0  0  0  2  0  0  0  0  0  0
   11.0950    0.5110   -8.2010 C   0  0  1  0  0  0  0  0  0  0  0  0
   11.4619    4.4751  -14.0523 H   0  0  0  0  0  0  0  0  0  0  0  0
   10.7230    3.9962  -12.4796 H   0  0  0  0  0  0  0  0  0  0  0  0
   12.0720    2.4100  -14.3380 H   0  0  0  0  0  0  0  0  0  0  0  0
   11.3306    2.2593   -6.9602 H   0  0  0  0  0  0  0  0  0  0  0  0
    9.6433    1.9303   -7.4654 H   0  0  0  0  0  0  0  0  0  0  0  0
   12.3708    2.9208  -11.0099 H   0  0  0  0  0  0  0  0  0  0  0  0
   10.7288    3.4913  -11.5755 H   0  0  0  0  0  0  0  0  0  0  0  0
    9.6108    1.9391  -10.3235 H   0  0  0  0  0  0  0  0  0  0  0  0
   10.6465    0.9083  -12.3986 H   0  0  0  0  0  0  0  0  0  0  0  0
   12.4245    1.2491  -12.5394 H   0  0  0  0  0  0  0  0  0  0  0  0
   10.4808   -0.1637  -10.2552 H   0  0  0  0  0  0  0  0  0  0  0  0
   10.4110   -0.2348   -7.7700 H   0  0  0  0  0  0  0  0  0  0  0  0
  1  2  2  0
  2  3  1  0
  2  4  1  0
  4  5  1  0
  5  6  1  0
  6  7  1  0
  7  8  1  0
  8  9  1  0
  9 10  1  0
 10 11  1  0
 11 12  1  0
 12 13  1  0
 13 14  2  0
 13 15  1  0
 15 16  1  0
 16  8  1  0
 16 11  1  0
  4 17  1  0
  4 18  1  0
  5 19  1  0
  6 20  1  0
  6 21  1  0
  7 22  1  0
  7 23  1  0
  8 24  1  6
 10 25  1  0
 10 26  1  0
 11 27  1  1
 16 28  1  1
M  CHG  3   3  -1  12  -1  15  -1
M  END
>  <UniqueID>  (18) 
1

>  <SMILES>  (18) 
O=C([O-])CNCC[C@@H]1OC[C@@H]2[N-]C(=O)[N-][C@@H]21

>  <Energy>  (18) 
42.304328830298104

>  <Genealogy>  (18) 
O=C([O-])CNCC[C@@H]1OC[C@@H]2[N-]C(=O)[N-][C@@H]21 (protonated)
O=C([O-])CNCC[C@@H]1OC[C@@H]2[N-]C(=O)[N-][C@@H]21 (3D coordinates assigned)
O=C([O-])CNCC[C@@H]1OC[C@@H]2[N-]C(=O)[N-][C@@H]21 (nonaromatic ring conformer: 42.304328830298104 kcal/mol)

>  <score_type>  (18) 
oracle

>  <energy>  (18) 
[-6.75, -6.73, -6.68, -6.64, -6.62, -6.35, -6.33, -6.27, -6.25, -5.98, -5.85, -5.84, -5.81, -5.81, -5.76, -5.74, -5.73, -5.7, -5.65, -5.44]

$$$$
GXTHWFWNSXFFOY-SJXMAQCXNA-K
     RDKit          3D

 28 29  0  0  0  0  0  0  0  0999 V2000
    8.7200    5.0200  -13.8220 O   0  0  0  0  0  0  0  0  0  0  0  0
    9.3880    3.9990  -14.1340 C   0  0  0  0  0  0  0  0  0  0  0  0
    8.8620    3.0780  -15.0290 O   0  0  0  0  0  1  0  0  0  0  0  0
   10.7540    3.7920  -13.5600 C   0  0  0  0  0  0  0  0  0  0  0  0
   11.1910    2.4060  -13.7720 N   0  0  0  0  0  0  0  0  0  0  0  0
   10.6940    1.9210   -7.7910 C   0  0  0  0  0  0  0  0  0  0  0  0
   11.3460    2.6290  -11.2830 C   0  0  0  0  0  0  0  0  0  0  0  0
   10.6740    1.9900  -10.0460 C   0  0  2  0  0  0  0  0  0  0  0  0
   10.8600    2.7810   -8.8950 O   0  0  0  0  0  0  0  0  0  0  0  0
   11.4160    1.6870  -12.5060 C   0  0  0  0  0  0  0  0  0  0  0  0
   11.1220    0.5580   -9.7280 C   0  0  1  0  0  0  0  0  0  0  0  0
   12.5000    0.2820  -10.1230 N   0  0  0  0  0  2  0  0  0  0  0  0
   13.2290    0.0820   -8.9350 C   0  0  0  0  0  0  0  0  0  0  0  0
   14.4580   -0.1800   -8.9180 O   0  0  0  0  0  0  0  0  0  0  0  0
   12.4540    0.2050   -7.7660 N   0  0  0  0  0  2  0  0  0  0  0  0
   11.0950    0.5110   -8.2010 C   0  0  1  0  0  0  0  0  0  0  0  0
   11.4619    4.4751  -14.0523 H   0  0  0  0  0  0  0  0  0  0  0  0
   10.7230    3.9962  -12.4796 H   0  0  0  0  0  0  0  0  0  0  0  0
   12.0720    2.4100  -14.3380 H   0  0  0  0  0  0  0  0  0  0  0  0
   11.3306    2.2593   -6.9602 H   0  0  0  0  0  0  0  0  0  0  0  0
    9.6433    1.9303   -7.4654 H   0  0  0  0  0  0  0  0  0  0  0  0
   12.3708    2.9208  -11.0099 H   0  0  0  0  0  0  0  0  0  0  0  0
   10.7288    3.4913  -11.5755 H   0  0  0  0  0  0  0  0  0  0  0  0
    9.6108    1.9391  -10.3235 H   0  0  0  0  0  0  0  0  0  0  0  0
   10.6465    0.9083  -12.3986 H   0  0  0  0  0  0  0  0  0  0  0  0
   12.4245    1.2491  -12.5394 H   0  0  0  0  0  0  0  0  0  0  0  0
   10.4808   -0.1637  -10.2552 H   0  0  0  0  0  0  0  0  0  0  0  0
   10.4110   -0.2348   -7.7700 H   0  0  0  0  0  0  0  0  0  0  0  0
  1  2  2  0
  2  3  1  0
  2  4  1  0
  4  5  1  0
  5  6  1  0
  6  7  1  0
  7  8  1  0
  8  9  1  0
  9 10  1  0
 10 11  1  0
 11 12  1  0
 12 13  1  0
 13 14  2  0
 13 15  1  0
 15 16  1  0
 16  8  1  0
 16 11  1  0
  4 17  1  0
  4 18  1  0
  5 19  1  0
  6 20  1  0
  6 21  1  0
  7 22  1  0
  7 23  1  0
  8 24  1  6
 10 25  1  0
 10 26  1  0
 11 27  1  1
 16 28  1  1
M  CHG  3   3  -1  12  -1  15  -1
M  END
>  <UniqueID>  (19) 
1

>  <SMILES>  (19) 
O=C([O-])CNCC[C@@H]1OC[C@@H]2[N-]C(=O)[N-][C@@H]21

>  <Energy>  (19) 
42.304328830298104

>  <Genealogy>  (19) 
O=C([O-])CNCC[C@@H]1OC[C@@H]2[N-]C(=O)[N-][C@@H]21 (protonated)
O=C([O-])CNCC[C@@H]1OC[C@@H]2[N-]C(=O)[N-][C@@H]21 (3D coordinates assigned)
O=C([O-])CNCC[C@@H]1OC[C@@H]2[N-]C(=O)[N-][C@@H]21 (nonaromatic ring conformer: 42.304328830298104 kcal/mol)

>  <score_type>  (19) 
oracle

>  <energy>  (19) 
[-6.75, -6.73, -6.68, -6.64, -6.62, -6.35, -6.33, -6.27, -6.25, -5.98, -5.85, -5.84, -5.81, -5.81, -5.76, -5.74, -5.73, -5.7, -5.65, -5.44]

$$$$
GXTHWFWNSXFFOY-SJXMAQCXNA-K
     RDKit          3D

 28 29  0  0  0  0  0  0  0  0999 V2000
    8.7200    5.0200  -13.8220 O   0  0  0  0  0  0  0  0  0  0  0  0
    9.3880    3.9990  -14.1340 C   0  0  0  0  0  0  0  0  0  0  0  0
    8.8620    3.0780  -15.0290 O   0  0  0  0  0  1  0  0  0  0  0  0
   10.7540    3.7920  -13.5600 C   0  0  0  0  0  0  0  0  0  0  0  0
   11.1910    2.4060  -13.7720 N   0  0  0  0  0  0  0  0  0  0  0  0
   10.6940    1.9210   -7.7910 C   0  0  0  0  0  0  0  0  0  0  0  0
   11.3460    2.6290  -11.2830 C   0  0  0  0  0  0  0  0  0  0  0  0
   10.6740    1.9900  -10.0460 C   0  0  2  0  0  0  0  0  0  0  0  0
   10.8600    2.7810   -8.8950 O   0  0  0  0  0  0  0  0  0  0  0  0
   11.4160    1.6870  -12.5060 C   0  0  0  0  0  0  0  0  0  0  0  0
   11.1220    0.5580   -9.7280 C   0  0  1  0  0  0  0  0  0  0  0  0
   12.5000    0.2820  -10.1230 N   0  0  0  0  0  2  0  0  0  0  0  0
   13.2290    0.0820   -8.9350 C   0  0  0  0  0  0  0  0  0  0  0  0
   14.4580   -0.1800   -8.9180 O   0  0  0  0  0  0  0  0  0  0  0  0
   12.4540    0.2050   -7.7660 N   0  0  0  0  0  2  0  0  0  0  0  0
   11.0950    0.5110   -8.2010 C   0  0  1  0  0  0  0  0  0  0  0  0
   11.4619    4.4751  -14.0523 H   0  0  0  0  0  0  0  0  0  0  0  0
   10.7230    3.9962  -12.4796 H   0  0  0  0  0  0  0  0  0  0  0  0
   12.0720    2.4100  -14.3380 H   0  0  0  0  0  0  0  0  0  0  0  0
   11.3306    2.2593   -6.9602 H   0  0  0  0  0  0  0  0  0  0  0  0
    9.6433    1.9303   -7.4654 H   0  0  0  0  0  0  0  0  0  0  0  0
   12.3708    2.9208  -11.0099 H   0  0  0  0  0  0  0  0  0  0  0  0
   10.7288    3.4913  -11.5755 H   0  0  0  0  0  0  0  0  0  0  0  0
    9.6108    1.9391  -10.3235 H   0  0  0  0  0  0  0  0  0  0  0  0
   10.6465    0.9083  -12.3986 H   0  0  0  0  0  0  0  0  0  0  0  0
   12.4245    1.2491  -12.5394 H   0  0  0  0  0  0  0  0  0  0  0  0
   10.4808   -0.1637  -10.2552 H   0  0  0  0  0  0  0  0  0  0  0  0
   10.4110   -0.2348   -7.7700 H   0  0  0  0  0  0  0  0  0  0  0  0
  1  2  2  0
  2  3  1  0
  2  4  1  0
  4  5  1  0
  5  6  1  0
  6  7  1  0
  7  8  1  0
  8  9  1  0
  9 10  1  0
 10 11  1  0
 11 12  1  0
 12 13  1  0
 13 14  2  0
 13 15  1  0
 15 16  1  0
 16  8  1  0
 16 11  1  0
  4 17  1  0
  4 18  1  0
  5 19  1  0
  6 20  1  0
  6 21  1  0
  7 22  1  0
  7 23  1  0
  8 24  1  6
 10 25  1  0
 10 26  1  0
 11 27  1  1
 16 28  1  1
M  CHG  3   3  -1  12  -1  15  -1
M  END
>  <UniqueID>  (20) 
1

>  <SMILES>  (20) 
O=C([O-])CNCC[C@@H]1OC[C@@H]2[N-]C(=O)[N-][C@@H]21

>  <Energy>  (20) 
42.304328830298104

>  <Genealogy>  (20) 
O=C([O-])CNCC[C@@H]1OC[C@@H]2[N-]C(=O)[N-][C@@H]21 (protonated)
O=C([O-])CNCC[C@@H]1OC[C@@H]2[N-]C(=O)[N-][C@@H]21 (3D coordinates assigned)
O=C([O-])CNCC[C@@H]1OC[C@@H]2[N-]C(=O)[N-][C@@H]21 (nonaromatic ring conformer: 42.304328830298104 kcal/mol)

>  <score_type>  (20) 
oracle

>  <energy>  (20) 
[-6.75, -6.73, -6.68, -6.64, -6.62, -6.35, -6.33, -6.27, -6.25, -5.98, -5.85, -5.84, -5.81, -5.81, -5.76, -5.74, -5.73, -5.7, -5.65, -5.44]

$$$$
