mol1
     RDKit          3D

 51 53  0  0  0  0  0  0  0  0999 V2000
   -3.6396    3.7267    2.2834 C   0  0  0  0  0  0  0  0  0  0  0  0
   -3.0494    3.5535    1.2461 C   0  0  0  0  0  0  0  0  0  0  0  0
   -2.3284    3.3419   -0.0166 C   0  0  0  0  0  0  0  0  0  0  0  0
   -2.5439    1.9243   -0.5582 C   0  0  0  0  0  0  0  0  0  0  0  0
   -1.8833    0.8587    0.3264 C   0  0  0  0  0  0  0  0  0  0  0  0
   -1.9972   -0.4655   -0.2891 N   0  0  0  0  0  0  0  0  0  0  0  0
   -1.2552   -1.0358   -1.2856 C   0  0  0  0  0  0  0  0  0  0  0  0
   -0.0960   -0.3812   -1.9915 C   0  0  0  0  0  0  0  0  0  0  0  0
    1.0949   -0.1767   -1.0817 C   0  0  0  0  0  0  0  0  0  0  0  0
    1.4949    1.1309   -0.7641 C   0  0  0  0  0  0  0  0  0  0  0  0
    2.6051    1.3666    0.0642 C   0  0  0  0  0  0  0  0  0  0  0  0
    3.0196    2.6647    0.4025 O   0  0  0  0  0  0  0  0  0  0  0  0
    2.3577    3.8572   -0.0074 C   0  0  0  0  0  0  0  0  0  0  0  0
    3.3410    0.2840    0.5613 C   0  0  0  0  0  0  0  0  0  0  0  0
    4.4828    0.5581    1.3255 O   0  0  0  0  0  0  0  0  0  0  0  0
    5.7624   -0.0020    1.0455 C   0  0  0  0  0  0  0  0  0  0  0  0
    2.9276   -1.0355    0.2805 C   0  0  0  0  0  0  0  0  0  0  0  0
    3.5776   -2.1318    0.8524 O   0  0  0  0  0  0  0  0  0  0  0  0
    3.4868   -2.4116    2.2453 C   0  0  0  0  0  0  0  0  0  0  0  0
    1.8338   -1.2642   -0.5689 C   0  0  0  0  0  0  0  0  0  0  0  0
    1.4104   -2.9298   -0.9671 Cl  0  0  0  0  0  0  0  0  0  0  0  0
   -1.6756   -2.2893   -1.6169 N   0  0  0  0  0  0  0  0  0  0  0  0
   -2.7087   -2.4915   -0.7806 C   0  0  0  0  0  0  0  0  0  0  0  0
   -3.5458   -3.5953   -0.6628 C   0  0  0  0  0  0  0  0  0  0  0  0
   -3.3802   -4.7559   -1.4777 N   0  0  0  0  0  0  0  0  0  0  0  0
   -4.5474   -3.5341    0.2649 N   0  0  0  0  0  0  0  0  0  0  0  0
   -4.7244   -2.4245    1.0520 C   0  0  0  0  0  0  0  0  0  0  0  0
   -3.8953   -1.3446    0.9253 N   0  0  0  0  0  0  0  0  0  0  0  0
   -2.8994   -1.4106    0.0082 C   0  0  0  0  0  0  0  0  0  0  0  0
   -4.1573    3.8785    3.1944 H   0  0  0  0  0  0  0  0  0  0  0  0
   -2.7038    4.0752   -0.7611 H   0  0  0  0  0  0  0  0  0  0  0  0
   -1.2457    3.5325    0.1407 H   0  0  0  0  0  0  0  0  0  0  0  0
   -2.1147    1.8790   -1.5794 H   0  0  0  0  0  0  0  0  0  0  0  0
   -3.6328    1.7125   -0.6445 H   0  0  0  0  0  0  0  0  0  0  0  0
   -0.8200    1.1011    0.5134 H   0  0  0  0  0  0  0  0  0  0  0  0
   -2.3845    0.8488    1.3188 H   0  0  0  0  0  0  0  0  0  0  0  0
    0.2172   -1.0091   -2.8528 H   0  0  0  0  0  0  0  0  0  0  0  0
   -0.4384    0.5793   -2.4264 H   0  0  0  0  0  0  0  0  0  0  0  0
    0.9312    1.9643   -1.1618 H   0  0  0  0  0  0  0  0  0  0  0  0
    1.3153    3.8656    0.3750 H   0  0  0  0  0  0  0  0  0  0  0  0
    2.3607    3.9348   -1.1153 H   0  0  0  0  0  0  0  0  0  0  0  0
    2.8957    4.7325    0.4106 H   0  0  0  0  0  0  0  0  0  0  0  0
    6.5230    0.5086    1.6716 H   0  0  0  0  0  0  0  0  0  0  0  0
    6.0194    0.1545   -0.0242 H   0  0  0  0  0  0  0  0  0  0  0  0
    5.7897   -1.0833    1.2821 H   0  0  0  0  0  0  0  0  0  0  0  0
    2.4292   -2.6065    2.5227 H   0  0  0  0  0  0  0  0  0  0  0  0
    3.8720   -1.5598    2.8425 H   0  0  0  0  0  0  0  0  0  0  0  0
    4.0896   -3.3138    2.4746 H   0  0  0  0  0  0  0  0  0  0  0  0
   -4.0297   -5.5673   -1.3744 H   0  0  0  0  0  0  0  0  0  0  0  0
   -2.6141   -4.8111   -2.1851 H   0  0  0  0  0  0  0  0  0  0  0  0
   -5.5269   -2.4029    1.7761 H   0  0  0  0  0  0  0  0  0  0  0  0
  1  2  3  0
  2  3  1  0
  3  4  1  0
  4  5  1  0
  5  6  1  0
  6  7  1  0
  7  8  1  0
  8  9  1  0
  9 10  2  0
 10 11  1  0
 11 12  1  0
 12 13  1  0
 11 14  2  0
 14 15  1  0
 15 16  1  0
 14 17  1  0
 17 18  1  0
 18 19  1  0
 17 20  2  0
 20 21  1  0
  7 22  2  0
 22 23  1  0
 23 24  2  0
 24 25  1  0
 24 26  1  0
 26 27  2  0
 27 28  1  0
 28 29  2  0
 29  6  1  0
 20  9  1  0
 29 23  1  0
  1 30  1  0
  3 31  1  0
  3 32  1  0
  4 33  1  0
  4 34  1  0
  5 35  1  0
  5 36  1  0
  8 37  1  0
  8 38  1  0
 10 39  1  0
 13 40  1  0
 13 41  1  0
 13 42  1  0
 16 43  1  0
 16 44  1  0
 16 45  1  0
 19 46  1  0
 19 47  1  0
 19 48  1  0
 25 49  1  0
 25 50  1  0
 27 51  1  0
M  END
$$$$
mol2
     RDKit          3D

 52 54  0  0  0  0  0  0  0  0999 V2000
    3.4152    0.3882    3.1321 C   0  0  0  0  0  0  0  0  0  0  0  0
    3.1544   -1.0121    2.5752 C   0  0  0  0  0  0  0  0  0  0  0  0
    2.2574   -1.0060    1.3278 C   0  0  0  0  0  0  0  0  0  0  0  0
    2.8932   -0.2622    0.1464 C   0  0  0  0  0  0  0  0  0  0  0  0
    2.1195   -0.4875   -1.0781 N   0  0  0  0  0  0  0  0  0  0  0  0
    1.2384    0.3327   -1.7246 C   0  0  0  0  0  0  0  0  0  0  0  0
    0.7634    1.6648   -1.2144 C   0  0  0  0  0  0  0  0  0  0  0  0
   -0.5032    1.4961   -0.4171 C   0  0  0  0  0  0  0  0  0  0  0  0
   -1.7055    1.2045   -1.0724 C   0  0  0  0  0  0  0  0  0  0  0  0
   -2.9039    1.0396   -0.3525 C   0  0  0  0  0  0  0  0  0  0  0  0
   -4.1056    0.7434   -1.0155 O   0  0  0  0  0  0  0  0  0  0  0  0
   -4.2417    0.5666   -2.4220 C   0  0  0  0  0  0  0  0  0  0  0  0
   -2.8860    1.1749    1.0597 C   0  0  0  0  0  0  0  0  0  0  0  0
   -4.0272    1.0305    1.8726 O   0  0  0  0  0  0  0  0  0  0  0  0
   -5.3488    0.7325    1.4357 C   0  0  0  0  0  0  0  0  0  0  0  0
   -1.6779    1.4641    1.7164 C   0  0  0  0  0  0  0  0  0  0  0  0
   -1.6996    1.5805    3.1159 O   0  0  0  0  0  0  0  0  0  0  0  0
   -0.5467    1.7514    3.9327 C   0  0  0  0  0  0  0  0  0  0  0  0
   -0.4937    1.6274    0.9755 C   0  0  0  0  0  0  0  0  0  0  0  0
    0.7230   -0.2191   -2.8595 N   0  0  0  0  0  0  0  0  0  0  0  0
    1.3288   -1.4182   -2.9123 C   0  0  0  0  0  0  0  0  0  0  0  0
    1.1996   -2.4318   -3.8546 C   0  0  0  0  0  0  0  0  0  0  0  0
    0.3286   -2.3070   -4.9791 N   0  0  0  0  0  0  0  0  0  0  0  0
    1.9382   -3.5666   -3.6687 N   0  0  0  0  0  0  0  0  0  0  0  0
    2.7766   -3.7049   -2.5914 C   0  0  0  0  0  0  0  0  0  0  0  0
    2.8918   -2.7020   -1.6692 N   0  0  0  0  0  0  0  0  0  0  0  0
    2.1569   -1.5782   -1.8562 C   0  0  0  0  0  0  0  0  0  0  0  0
    4.0824    0.9603    2.4538 H   0  0  0  0  0  0  0  0  0  0  0  0
    2.4630    0.9421    3.2634 H   0  0  0  0  0  0  0  0  0  0  0  0
    3.9167    0.3051    4.1192 H   0  0  0  0  0  0  0  0  0  0  0  0
    4.1247   -1.5023    2.3407 H   0  0  0  0  0  0  0  0  0  0  0  0
    2.6536   -1.6167    3.3625 H   0  0  0  0  0  0  0  0  0  0  0  0
    1.2754   -0.5492    1.5732 H   0  0  0  0  0  0  0  0  0  0  0  0
    2.0708   -2.0624    1.0357 H   0  0  0  0  0  0  0  0  0  0  0  0
    3.9347   -0.6190   -0.0121 H   0  0  0  0  0  0  0  0  0  0  0  0
    2.9530    0.8190    0.3753 H   0  0  0  0  0  0  0  0  0  0  0  0
    1.5497    2.1668   -0.6172 H   0  0  0  0  0  0  0  0  0  0  0  0
    0.5640    2.3361   -2.0776 H   0  0  0  0  0  0  0  0  0  0  0  0
   -1.6968    1.1103   -2.1498 H   0  0  0  0  0  0  0  0  0  0  0  0
   -3.9560    1.4983   -2.9540 H   0  0  0  0  0  0  0  0  0  0  0  0
   -3.6105   -0.2807   -2.7635 H   0  0  0  0  0  0  0  0  0  0  0  0
   -5.3009    0.3358   -2.6563 H   0  0  0  0  0  0  0  0  0  0  0  0
   -6.0166    0.6854    2.3204 H   0  0  0  0  0  0  0  0  0  0  0  0
   -5.7215    1.5336    0.7632 H   0  0  0  0  0  0  0  0  0  0  0  0
   -5.3740   -0.2559    0.9308 H   0  0  0  0  0  0  0  0  0  0  0  0
   -0.8608    1.8080    4.9949 H   0  0  0  0  0  0  0  0  0  0  0  0
   -0.0226    2.6938    3.6678 H   0  0  0  0  0  0  0  0  0  0  0  0
    0.1322    0.8823    3.8108 H   0  0  0  0  0  0  0  0  0  0  0  0
    0.4387    1.8530    1.4755 H   0  0  0  0  0  0  0  0  0  0  0  0
    0.2520   -3.0843   -5.6717 H   0  0  0  0  0  0  0  0  0  0  0  0
   -0.2460   -1.4466   -5.1219 H   0  0  0  0  0  0  0  0  0  0  0  0
    3.3494   -4.6140   -2.4702 H   0  0  0  0  0  0  0  0  0  0  0  0
  1  2  1  0
  2  3  1  0
  3  4  1  0
  4  5  1  0
  5  6  1  0
  6  7  1  0
  7  8  1  0
  8  9  2  0
  9 10  1  0
 10 11  1  0
 11 12  1  0
 10 13  2  0
 13 14  1  0
 14 15  1  0
 13 16  1  0
 16 17  1  0
 17 18  1  0
 16 19  2  0
  6 20  2  0
 20 21  1  0
 21 22  2  0
 22 23  1  0
 22 24  1  0
 24 25  2  0
 25 26  1  0
 26 27  2  0
 27  5  1  0
 19  8  1  0
 27 21  1  0
  1 28  1  0
  1 29  1  0
  1 30  1  0
  2 31  1  0
  2 32  1  0
  3 33  1  0
  3 34  1  0
  4 35  1  0
  4 36  1  0
  7 37  1  0
  7 38  1  0
  9 39  1  0
 12 40  1  0
 12 41  1  0
 12 42  1  0
 15 43  1  0
 15 44  1  0
 15 45  1  0
 18 46  1  0
 18 47  1  0
 18 48  1  0
 19 49  1  0
 23 50  1  0
 23 51  1  0
 25 52  1  0
M  END
$$$$
mol3
     RDKit          3D

 48 50  0  0  0  0  0  0  0  0999 V2000
   -0.6093   -3.0535    2.7942 C   0  0  0  0  0  0  0  0  0  0  0  0
   -1.8520   -2.1721    2.9170 C   0  0  0  0  0  0  0  0  0  0  0  0
   -1.6338   -0.7586    2.3580 C   0  0  0  0  0  0  0  0  0  0  0  0
   -1.4610   -0.7472    0.8341 C   0  0  0  0  0  0  0  0  0  0  0  0
   -1.3782    0.6289    0.3408 N   0  0  0  0  0  0  0  0  0  0  0  0
   -0.3049    1.4714    0.2975 C   0  0  0  0  0  0  0  0  0  0  0  0
    1.0879    1.1127    0.7393 C   0  0  0  0  0  0  0  0  0  0  0  0
    1.7630    0.1828   -0.2422 C   0  0  0  0  0  0  0  0  0  0  0  0
    2.1627   -1.0988    0.1781 C   0  0  0  0  0  0  0  0  0  0  0  0
    2.8016   -1.9802   -0.7125 C   0  0  0  0  0  0  0  0  0  0  0  0
    3.2153   -3.2662   -0.3337 O   0  0  0  0  0  0  0  0  0  0  0  0
    3.0514   -3.8141    0.9702 C   0  0  0  0  0  0  0  0  0  0  0  0
    3.0406   -1.5684   -2.0252 C   0  0  0  0  0  0  0  0  0  0  0  0
    2.6638   -0.2941   -2.4509 C   0  0  0  0  0  0  0  0  0  0  0  0
    2.0309    0.5974   -1.5645 C   0  0  0  0  0  0  0  0  0  0  0  0
    1.6625    1.8937   -1.9603 O   0  0  0  0  0  0  0  0  0  0  0  0
    1.8429    2.4237   -3.2692 C   0  0  0  0  0  0  0  0  0  0  0  0
   -0.5974    2.6891   -0.2408 N   0  0  0  0  0  0  0  0  0  0  0  0
   -1.9049    2.5795   -0.5359 C   0  0  0  0  0  0  0  0  0  0  0  0
   -2.7603    3.5100   -1.1141 C   0  0  0  0  0  0  0  0  0  0  0  0
   -2.3099    4.8093   -1.4976 N   0  0  0  0  0  0  0  0  0  0  0  0
   -4.0611    3.1386   -1.3089 N   0  0  0  0  0  0  0  0  0  0  0  0
   -4.5099    1.8930   -0.9490 C   0  0  0  0  0  0  0  0  0  0  0  0
   -3.6580    0.9853   -0.3834 N   0  0  0  0  0  0  0  0  0  0  0  0
   -2.3684    1.3565   -0.1929 C   0  0  0  0  0  0  0  0  0  0  0  0
    0.2774   -2.5423    3.2261 H   0  0  0  0  0  0  0  0  0  0  0  0
   -0.7739   -4.0031    3.3454 H   0  0  0  0  0  0  0  0  0  0  0  0
   -0.4125   -3.3029    1.7313 H   0  0  0  0  0  0  0  0  0  0  0  0
   -2.1147   -2.0861    3.9936 H   0  0  0  0  0  0  0  0  0  0  0  0
   -2.7068   -2.6598    2.3999 H   0  0  0  0  0  0  0  0  0  0  0  0
   -2.5220   -0.1419    2.6171 H   0  0  0  0  0  0  0  0  0  0  0  0
   -0.7530   -0.2963    2.8503 H   0  0  0  0  0  0  0  0  0  0  0  0
   -0.5527   -1.3039    0.5339 H   0  0  0  0  0  0  0  0  0  0  0  0
   -2.3291   -1.2589    0.3641 H   0  0  0  0  0  0  0  0  0  0  0  0
    1.0439    0.6648    1.7529 H   0  0  0  0  0  0  0  0  0  0  0  0
    1.6961    2.0383    0.8311 H   0  0  0  0  0  0  0  0  0  0  0  0
    1.9686   -1.4051    1.1974 H   0  0  0  0  0  0  0  0  0  0  0  0
    1.9733   -3.8774    1.2243 H   0  0  0  0  0  0  0  0  0  0  0  0
    3.4806   -4.8366    0.9903 H   0  0  0  0  0  0  0  0  0  0  0  0
    3.5851   -3.1897    1.7176 H   0  0  0  0  0  0  0  0  0  0  0  0
    3.5302   -2.2396   -2.7196 H   0  0  0  0  0  0  0  0  0  0  0  0
    2.8761   -0.0095   -3.4722 H   0  0  0  0  0  0  0  0  0  0  0  0
    1.2848    1.8116   -4.0088 H   0  0  0  0  0  0  0  0  0  0  0  0
    2.9228    2.4469   -3.5265 H   0  0  0  0  0  0  0  0  0  0  0  0
    1.4485    3.4601   -3.2968 H   0  0  0  0  0  0  0  0  0  0  0  0
   -1.3164    5.0977   -1.3554 H   0  0  0  0  0  0  0  0  0  0  0  0
   -2.9748    5.4883   -1.9300 H   0  0  0  0  0  0  0  0  0  0  0  0
   -5.5447    1.6269   -1.1145 H   0  0  0  0  0  0  0  0  0  0  0  0
  1  2  1  0
  2  3  1  0
  3  4  1  0
  4  5  1  0
  5  6  1  0
  6  7  1  0
  7  8  1  0
  8  9  2  0
  9 10  1  0
 10 11  1  0
 11 12  1  0
 10 13  2  0
 13 14  1  0
 14 15  2  0
 15 16  1  0
 16 17  1  0
  6 18  2  0
 18 19  1  0
 19 20  2  0
 20 21  1  0
 20 22  1  0
 22 23  2  0
 23 24  1  0
 24 25  2  0
 25  5  1  0
 15  8  1  0
 25 19  1  0
  1 26  1  0
  1 27  1  0
  1 28  1  0
  2 29  1  0
  2 30  1  0
  3 31  1  0
  3 32  1  0
  4 33  1  0
  4 34  1  0
  7 35  1  0
  7 36  1  0
  9 37  1  0
 12 38  1  0
 12 39  1  0
 12 40  1  0
 13 41  1  0
 14 42  1  0
 17 43  1  0
 17 44  1  0
 17 45  1  0
 21 46  1  0
 21 47  1  0
 23 48  1  0
M  END
$$$$