mol2
     RDKit          3D

 52 54  0  0  0  0  0  0  0  0999 V2000
    3.4152    0.3882    3.1321 C   0  0  0  0  0  0  0  0  0  0  0  0
    3.1544   -1.0121    2.5752 C   0  0  0  0  0  0  0  0  0  0  0  0
    2.2574   -1.0060    1.3278 C   0  0  0  0  0  0  0  0  0  0  0  0
    2.8932   -0.2622    0.1464 C   0  0  0  0  0  0  0  0  0  0  0  0
    2.1195   -0.4875   -1.0781 N   0  0  0  0  0  0  0  0  0  0  0  0
    1.2384    0.3327   -1.7246 C   0  0  0  0  0  0  0  0  0  0  0  0
    0.7634    1.6648   -1.2144 C   0  0  0  0  0  0  0  0  0  0  0  0
   -0.5032    1.4961   -0.4171 C   0  0  0  0  0  0  0  0  0  0  0  0
   -1.7055    1.2045   -1.0724 C   0  0  0  0  0  0  0  0  0  0  0  0
   -2.9039    1.0396   -0.3525 C   0  0  0  0  0  0  0  0  0  0  0  0
   -4.1056    0.7434   -1.0155 O   0  0  0  0  0  0  0  0  0  0  0  0
   -4.2417    0.5666   -2.4220 C   0  0  0  0  0  0  0  0  0  0  0  0
   -2.8860    1.1749    1.0597 C   0  0  0  0  0  0  0  0  0  0  0  0
   -4.0272    1.0305    1.8726 O   0  0  0  0  0  0  0  0  0  0  0  0
   -5.3488    0.7325    1.4357 C   0  0  0  0  0  0  0  0  0  0  0  0
   -1.6779    1.4641    1.7164 C   0  0  0  0  0  0  0  0  0  0  0  0
   -1.6996    1.5805    3.1159 O   0  0  0  0  0  0  0  0  0  0  0  0
   -0.5467    1.7514    3.9327 C   0  0  0  0  0  0  0  0  0  0  0  0
   -0.4937    1.6274    0.9755 C   0  0  0  0  0  0  0  0  0  0  0  0
    0.7230   -0.2191   -2.8595 N   0  0  0  0  0  0  0  0  0  0  0  0
    1.3288   -1.4182   -2.9123 C   0  0  0  0  0  0  0  0  0  0  0  0
    1.1996   -2.4318   -3.8546 C   0  0  0  0  0  0  0  0  0  0  0  0
    0.3286   -2.3070   -4.9791 N   0  0  0  0  0  0  0  0  0  0  0  0
    1.9382   -3.5666   -3.6687 N   0  0  0  0  0  0  0  0  0  0  0  0
    2.7766   -3.7049   -2.5914 C   0  0  0  0  0  0  0  0  0  0  0  0
    2.8918   -2.7020   -1.6692 N   0  0  0  0  0  0  0  0  0  0  0  0
    2.1569   -1.5782   -1.8562 C   0  0  0  0  0  0  0  0  0  0  0  0
    4.0824    0.9603    2.4538 H   0  0  0  0  0  0  0  0  0  0  0  0
    2.4630    0.9421    3.2634 H   0  0  0  0  0  0  0  0  0  0  0  0
    3.9167    0.3051    4.1192 H   0  0  0  0  0  0  0  0  0  0  0  0
    4.1247   -1.5023    2.3407 H   0  0  0  0  0  0  0  0  0  0  0  0
    2.6536   -1.6167    3.3625 H   0  0  0  0  0  0  0  0  0  0  0  0
    1.2754   -0.5492    1.5732 H   0  0  0  0  0  0  0  0  0  0  0  0
    2.0708   -2.0624    1.0357 H   0  0  0  0  0  0  0  0  0  0  0  0
    3.9347   -0.6190   -0.0121 H   0  0  0  0  0  0  0  0  0  0  0  0
    2.9530    0.8190    0.3753 H   0  0  0  0  0  0  0  0  0  0  0  0
    1.5497    2.1668   -0.6172 H   0  0  0  0  0  0  0  0  0  0  0  0
    0.5640    2.3361   -2.0776 H   0  0  0  0  0  0  0  0  0  0  0  0
   -1.6968    1.1103   -2.1498 H   0  0  0  0  0  0  0  0  0  0  0  0
   -3.9560    1.4983   -2.9540 H   0  0  0  0  0  0  0  0  0  0  0  0
   -3.6105   -0.2807   -2.7635 H   0  0  0  0  0  0  0  0  0  0  0  0
   -5.3009    0.3358   -2.6563 H   0  0  0  0  0  0  0  0  0  0  0  0
   -6.0166    0.6854    2.3204 H   0  0  0  0  0  0  0  0  0  0  0  0
   -5.7215    1.5336    0.7632 H   0  0  0  0  0  0  0  0  0  0  0  0
   -5.3740   -0.2559    0.9308 H   0  0  0  0  0  0  0  0  0  0  0  0
   -0.8608    1.8080    4.9949 H   0  0  0  0  0  0  0  0  0  0  0  0
   -0.0226    2.6938    3.6678 H   0  0  0  0  0  0  0  0  0  0  0  0
    0.1322    0.8823    3.8108 H   0  0  0  0  0  0  0  0  0  0  0  0
    0.4387    1.8530    1.4755 H   0  0  0  0  0  0  0  0  0  0  0  0
    0.2520   -3.0843   -5.6717 H   0  0  0  0  0  0  0  0  0  0  0  0
   -0.2460   -1.4466   -5.1219 H   0  0  0  0  0  0  0  0  0  0  0  0
    3.3494   -4.6140   -2.4702 H   0  0  0  0  0  0  0  0  0  0  0  0
  1  2  1  0
  2  3  1  0
  3  4  1  0
  4  5  1  0
  5  6  1  0
  6  7  1  0
  7  8  1  0
  8  9  2  0
  9 10  1  0
 10 11  1  0
 11 12  1  0
 10 13  2  0
 13 14  1  0
 14 15  1  0
 13 16  1  0
 16 17  1  0
 17 18  1  0
 16 19  2  0
  6 20  2  0
 20 21  1  0
 21 22  2  0
 22 23  1  0
 22 24  1  0
 24 25  2  0
 25 26  1  0
 26 27  2  0
 27  5  1  0
 19  8  1  0
 27 21  1  0
  1 28  1  0
  1 29  1  0
  1 30  1  0
  2 31  1  0
  2 32  1  0
  3 33  1  0
  3 34  1  0
  4 35  1  0
  4 36  1  0
  7 37  1  0
  7 38  1  0
  9 39  1  0
 12 40  1  0
 12 41  1  0
 12 42  1  0
 15 43  1  0
 15 44  1  0
 15 45  1  0
 18 46  1  0
 18 47  1  0
 18 48  1  0
 19 49  1  0
 23 50  1  0
 23 51  1  0
 25 52  1  0
M  END
$$$$