
     RDKit          3D

 24 26  0  0  0  0  0  0  0  0999 V2000
  -17.2060  -15.6790  -23.2550 O   0  0  0  0  0  0  0  0  0  0  0  0
  -16.4680  -16.0800  -24.2080 C   0  0  0  0  0  0  0  0  0  0  0  0
  -16.0990  -17.3710  -24.2790 N   0  0  0  0  0  0  0  0  0  0  0  0
  -15.3160  -17.7750  -25.2980 C   0  0  0  0  0  0  0  0  0  0  0  0
  -14.8810  -19.1180  -25.4470 N   0  0  0  0  0  0  0  0  0  0  0  0
  -15.3300  -20.1050  -26.2490 C   0  0  0  0  0  0  0  0  0  0  0  0
  -14.5930  -21.2510  -26.0470 C   0  0  0  0  0  0  0  0  0  0  0  0
  -13.6810  -20.9600  -25.1050 N   0  0  0  0  0  0  0  0  0  0  0  0
  -13.8680  -19.6660  -24.7530 C   0  0  0  0  0  0  0  0  0  0  0  0
  -14.9380  -16.8550  -26.2040 N   0  0  0  0  0  0  0  0  0  0  0  0
  -15.2780  -15.5760  -26.1720 C   0  0  0  0  0  0  0  0  0  0  0  0
  -14.8440  -14.6940  -27.1490 C   0  0  0  0  0  0  0  0  0  0  0  0
  -15.2340  -13.3760  -27.0570 C   0  0  0  0  0  0  0  0  0  0  0  0
  -16.0350  -12.9200  -26.0300 C   0  0  0  0  0  0  0  0  0  0  0  0
  -16.4510  -13.8120  -25.0790 C   0  0  0  0  0  0  0  0  0  0  0  0
  -16.0850  -15.1420  -25.1300 C   0  0  0  0  0  0  0  0  0  0  0  0
  -16.3980  -18.0810  -23.5690 H   0  0  0  0  0  0  0  0  0  0  0  0
  -16.1633  -20.0088  -26.9606 H   0  0  0  0  0  0  0  0  0  0  0  0
  -14.7255  -22.2162  -26.5576 H   0  0  0  0  0  0  0  0  0  0  0  0
  -13.2701  -19.1333  -23.9988 H   0  0  0  0  0  0  0  0  0  0  0  0
  -14.2051  -15.0373  -27.9760 H   0  0  0  0  0  0  0  0  0  0  0  0
  -14.8966  -12.6653  -27.8258 H   0  0  0  0  0  0  0  0  0  0  0  0
  -16.3327  -11.8624  -25.9768 H   0  0  0  0  0  0  0  0  0  0  0  0
  -17.0911  -13.4614  -24.2560 H   0  0  0  0  0  0  0  0  0  0  0  0
  1  2  2  0
  2  3  1  0
  3  4  1  0
  4  5  1  0
  5  6  1  0
  6  7  2  0
  7  8  1  0
  8  9  2  0
  4 10  2  0
 10 11  1  0
 11 12  2  0
 12 13  1  0
 13 14  2  0
 14 15  1  0
 15 16  2  0
 16  2  1  0
  9  5  1  0
 16 11  1  0
  3 17  1  0
  6 18  1  0
  7 19  1  0
  9 20  1  0
 12 21  1  0
 13 22  1  0
 14 23  1  0
 15 24  1  0
M  END
>  <score_type>  (1) 
oracle

>  <origin>  (1) 
autodockgpu

>  <energy>  (1) 
[-8.17, -8.17, -8.17, -8.17, -8.17, -8.17, -8.17, -8.17, -8.17, -8.17, -8.17, -8.17, -8.17, -8.17, -8.17, -8.17, -8.17, -8.17, -8.17, -8.17]

>  <meeko>  (1) 
{"free_energy": -8.17, "intermolecular_energy": -8.46, "internal_energy": -0.1}

$$$$

     RDKit          3D

 24 26  0  0  0  0  0  0  0  0999 V2000
  -17.2060  -15.6750  -23.2500 O   0  0  0  0  0  0  0  0  0  0  0  0
  -16.4700  -16.0750  -24.2050 C   0  0  0  0  0  0  0  0  0  0  0  0
  -16.1000  -17.3670  -24.2780 N   0  0  0  0  0  0  0  0  0  0  0  0
  -15.3200  -17.7700  -25.3000 C   0  0  0  0  0  0  0  0  0  0  0  0
  -14.8850  -19.1120  -25.4510 N   0  0  0  0  0  0  0  0  0  0  0  0
  -15.3330  -20.0970  -26.2560 C   0  0  0  0  0  0  0  0  0  0  0  0
  -14.5970  -21.2440  -26.0550 C   0  0  0  0  0  0  0  0  0  0  0  0
  -13.6860  -20.9550  -25.1110 N   0  0  0  0  0  0  0  0  0  0  0  0
  -13.8730  -19.6620  -24.7570 C   0  0  0  0  0  0  0  0  0  0  0  0
  -14.9450  -16.8480  -26.2070 N   0  0  0  0  0  0  0  0  0  0  0  0
  -15.2860  -15.5690  -26.1730 C   0  0  0  0  0  0  0  0  0  0  0  0
  -14.8560  -14.6870  -27.1500 C   0  0  0  0  0  0  0  0  0  0  0  0
  -15.2460  -13.3690  -27.0550 C   0  0  0  0  0  0  0  0  0  0  0  0
  -16.0440  -12.9140  -26.0270 C   0  0  0  0  0  0  0  0  0  0  0  0
  -16.4560  -13.8070  -25.0740 C   0  0  0  0  0  0  0  0  0  0  0  0
  -16.0900  -15.1370  -25.1280 C   0  0  0  0  0  0  0  0  0  0  0  0
  -16.3970  -18.0770  -23.5680 H   0  0  0  0  0  0  0  0  0  0  0  0
  -16.1648  -19.9988  -26.9691 H   0  0  0  0  0  0  0  0  0  0  0  0
  -14.7294  -22.2083  -26.5675 H   0  0  0  0  0  0  0  0  0  0  0  0
  -13.2758  -19.1310  -24.0011 H   0  0  0  0  0  0  0  0  0  0  0  0
  -14.2201  -15.0294  -27.9797 H   0  0  0  0  0  0  0  0  0  0  0  0
  -14.9101  -12.6574  -27.8236 H   0  0  0  0  0  0  0  0  0  0  0  0
  -16.3432  -11.8568  -25.9734 H   0  0  0  0  0  0  0  0  0  0  0  0
  -17.0922  -13.4570  -24.2477 H   0  0  0  0  0  0  0  0  0  0  0  0
  1  2  2  0
  2  3  1  0
  3  4  1  0
  4  5  1  0
  5  6  1  0
  6  7  2  0
  7  8  1  0
  8  9  2  0
  4 10  2  0
 10 11  1  0
 11 12  2  0
 12 13  1  0
 13 14  2  0
 14 15  1  0
 15 16  2  0
 16  2  1  0
  9  5  1  0
 16 11  1  0
  3 17  1  0
  6 18  1  0
  7 19  1  0
  9 20  1  0
 12 21  1  0
 13 22  1  0
 14 23  1  0
 15 24  1  0
M  END
>  <score_type>  (2) 
oracle

>  <origin>  (2) 
autodockgpu

>  <energy>  (2) 
[-8.17, -8.17, -8.17, -8.17, -8.17, -8.17, -8.17, -8.17, -8.17, -8.17, -8.17, -8.17, -8.17, -8.17, -8.17, -8.17, -8.17, -8.17, -8.17, -8.17]

>  <meeko>  (2) 
{"free_energy": -8.17, "intermolecular_energy": -8.47, "internal_energy": -0.1}

$$$$

     RDKit          3D

 24 26  0  0  0  0  0  0  0  0999 V2000
  -17.2040  -15.6430  -23.2560 O   0  0  0  0  0  0  0  0  0  0  0  0
  -16.4680  -16.0470  -24.2090 C   0  0  0  0  0  0  0  0  0  0  0  0
  -16.1040  -17.3400  -24.2790 N   0  0  0  0  0  0  0  0  0  0  0  0
  -15.3230  -17.7480  -25.2980 C   0  0  0  0  0  0  0  0  0  0  0  0
  -14.8930  -19.0930  -25.4460 N   0  0  0  0  0  0  0  0  0  0  0  0
  -15.3500  -20.0810  -26.2420 C   0  0  0  0  0  0  0  0  0  0  0  0
  -14.6150  -21.2280  -26.0410 C   0  0  0  0  0  0  0  0  0  0  0  0
  -13.6950  -20.9370  -25.1070 N   0  0  0  0  0  0  0  0  0  0  0  0
  -13.8760  -19.6410  -24.7580 C   0  0  0  0  0  0  0  0  0  0  0  0
  -14.9440  -16.8300  -26.2070 N   0  0  0  0  0  0  0  0  0  0  0  0
  -15.2800  -15.5500  -26.1760 C   0  0  0  0  0  0  0  0  0  0  0  0
  -14.8450  -14.6710  -27.1550 C   0  0  0  0  0  0  0  0  0  0  0  0
  -15.2300  -13.3520  -27.0640 C   0  0  0  0  0  0  0  0  0  0  0  0
  -16.0280  -12.8910  -26.0370 C   0  0  0  0  0  0  0  0  0  0  0  0
  -16.4450  -13.7810  -25.0830 C   0  0  0  0  0  0  0  0  0  0  0  0
  -16.0840  -15.1120  -25.1330 C   0  0  0  0  0  0  0  0  0  0  0  0
  -16.4040  -18.0480  -23.5670 H   0  0  0  0  0  0  0  0  0  0  0  0
  -16.1875  -19.9847  -26.9486 H   0  0  0  0  0  0  0  0  0  0  0  0
  -14.7544  -22.1947  -26.5471 H   0  0  0  0  0  0  0  0  0  0  0  0
  -13.2709  -19.1072  -24.0104 H   0  0  0  0  0  0  0  0  0  0  0  0
  -14.2090  -15.0177  -27.9829 H   0  0  0  0  0  0  0  0  0  0  0  0
  -14.8908  -12.6436  -27.8342 H   0  0  0  0  0  0  0  0  0  0  0  0
  -16.3227  -11.8324  -25.9856 H   0  0  0  0  0  0  0  0  0  0  0  0
  -17.0817  -13.4270  -24.2588 H   0  0  0  0  0  0  0  0  0  0  0  0
  1  2  2  0
  2  3  1  0
  3  4  1  0
  4  5  1  0
  5  6  1  0
  6  7  2  0
  7  8  1  0
  8  9  2  0
  4 10  2  0
 10 11  1  0
 11 12  2  0
 12 13  1  0
 13 14  2  0
 14 15  1  0
 15 16  2  0
 16  2  1  0
  9  5  1  0
 16 11  1  0
  3 17  1  0
  6 18  1  0
  7 19  1  0
  9 20  1  0
 12 21  1  0
 13 22  1  0
 14 23  1  0
 15 24  1  0
M  END
>  <score_type>  (3) 
oracle

>  <origin>  (3) 
autodockgpu

>  <energy>  (3) 
[-8.17, -8.17, -8.17, -8.17, -8.17, -8.17, -8.17, -8.17, -8.17, -8.17, -8.17, -8.17, -8.17, -8.17, -8.17, -8.17, -8.17, -8.17, -8.17, -8.17]

>  <meeko>  (3) 
{"free_energy": -8.17, "intermolecular_energy": -8.47, "internal_energy": -0.1}

$$$$

     RDKit          3D

 24 26  0  0  0  0  0  0  0  0999 V2000
  -17.2050  -15.6610  -23.2520 O   0  0  0  0  0  0  0  0  0  0  0  0
  -16.4680  -16.0630  -24.2050 C   0  0  0  0  0  0  0  0  0  0  0  0
  -16.0990  -17.3550  -24.2760 N   0  0  0  0  0  0  0  0  0  0  0  0
  -15.3180  -17.7590  -25.2960 C   0  0  0  0  0  0  0  0  0  0  0  0
  -14.8830  -19.1030  -25.4440 N   0  0  0  0  0  0  0  0  0  0  0  0
  -15.3310  -20.0880  -26.2480 C   0  0  0  0  0  0  0  0  0  0  0  0
  -14.5950  -21.2350  -26.0450 C   0  0  0  0  0  0  0  0  0  0  0  0
  -13.6850  -20.9450  -25.1010 N   0  0  0  0  0  0  0  0  0  0  0  0
  -13.8720  -19.6510  -24.7490 C   0  0  0  0  0  0  0  0  0  0  0  0
  -14.9410  -16.8400  -26.2030 N   0  0  0  0  0  0  0  0  0  0  0  0
  -15.2820  -15.5600  -26.1720 C   0  0  0  0  0  0  0  0  0  0  0  0
  -14.8490  -14.6800  -27.1500 C   0  0  0  0  0  0  0  0  0  0  0  0
  -15.2390  -13.3620  -27.0570 C   0  0  0  0  0  0  0  0  0  0  0  0
  -16.0380  -12.9040  -26.0300 C   0  0  0  0  0  0  0  0  0  0  0  0
  -16.4530  -13.7960  -25.0770 C   0  0  0  0  0  0  0  0  0  0  0  0
  -16.0870  -15.1260  -25.1290 C   0  0  0  0  0  0  0  0  0  0  0  0
  -16.3980  -18.0640  -23.5650 H   0  0  0  0  0  0  0  0  0  0  0  0
  -16.1624  -19.9903  -26.9616 H   0  0  0  0  0  0  0  0  0  0  0  0
  -14.7271  -22.1999  -26.5564 H   0  0  0  0  0  0  0  0  0  0  0  0
  -13.2751  -19.1187  -23.9938 H   0  0  0  0  0  0  0  0  0  0  0  0
  -14.2115  -15.0239  -27.9779 H   0  0  0  0  0  0  0  0  0  0  0  0
  -14.9024  -12.6518  -27.8266 H   0  0  0  0  0  0  0  0  0  0  0  0
  -16.3352  -11.8462  -25.9776 H   0  0  0  0  0  0  0  0  0  0  0  0
  -17.0914  -13.4451  -24.2528 H   0  0  0  0  0  0  0  0  0  0  0  0
  1  2  2  0
  2  3  1  0
  3  4  1  0
  4  5  1  0
  5  6  1  0
  6  7  2  0
  7  8  1  0
  8  9  2  0
  4 10  2  0
 10 11  1  0
 11 12  2  0
 12 13  1  0
 13 14  2  0
 14 15  1  0
 15 16  2  0
 16  2  1  0
  9  5  1  0
 16 11  1  0
  3 17  1  0
  6 18  1  0
  7 19  1  0
  9 20  1  0
 12 21  1  0
 13 22  1  0
 14 23  1  0
 15 24  1  0
M  END
>  <score_type>  (4) 
oracle

>  <origin>  (4) 
autodockgpu

>  <energy>  (4) 
[-8.17, -8.17, -8.17, -8.17, -8.17, -8.17, -8.17, -8.17, -8.17, -8.17, -8.17, -8.17, -8.17, -8.17, -8.17, -8.17, -8.17, -8.17, -8.17, -8.17]

>  <meeko>  (4) 
{"free_energy": -8.17, "intermolecular_energy": -8.47, "internal_energy": -0.1}

$$$$

     RDKit          3D

 24 26  0  0  0  0  0  0  0  0999 V2000
  -17.2010  -15.6230  -23.2590 O   0  0  0  0  0  0  0  0  0  0  0  0
  -16.4610  -16.0280  -24.2080 C   0  0  0  0  0  0  0  0  0  0  0  0
  -16.0920  -17.3200  -24.2720 N   0  0  0  0  0  0  0  0  0  0  0  0
  -15.3070  -17.7290  -25.2880 C   0  0  0  0  0  0  0  0  0  0  0  0
  -14.8710  -19.0720  -25.4290 N   0  0  0  0  0  0  0  0  0  0  0  0
  -15.3350  -20.0700  -26.2090 C   0  0  0  0  0  0  0  0  0  0  0  0
  -14.5900  -21.2110  -26.0090 C   0  0  0  0  0  0  0  0  0  0  0  0
  -13.6580  -20.9070  -25.0910 N   0  0  0  0  0  0  0  0  0  0  0  0
  -13.8420  -19.6080  -24.7510 C   0  0  0  0  0  0  0  0  0  0  0  0
  -14.9280  -16.8130  -26.1990 N   0  0  0  0  0  0  0  0  0  0  0  0
  -15.2700  -15.5340  -26.1730 C   0  0  0  0  0  0  0  0  0  0  0  0
  -14.8350  -14.6570  -27.1540 C   0  0  0  0  0  0  0  0  0  0  0  0
  -15.2260  -13.3390  -27.0690 C   0  0  0  0  0  0  0  0  0  0  0  0
  -16.0280  -12.8770  -26.0460 C   0  0  0  0  0  0  0  0  0  0  0  0
  -16.4440  -13.7650  -25.0900 C   0  0  0  0  0  0  0  0  0  0  0  0
  -16.0780  -15.0950  -25.1350 C   0  0  0  0  0  0  0  0  0  0  0  0
  -16.3910  -18.0260  -23.5590 H   0  0  0  0  0  0  0  0  0  0  0  0
  -16.1841  -19.9850  -26.9032 H   0  0  0  0  0  0  0  0  0  0  0  0
  -14.7310  -22.1827  -26.5049 H   0  0  0  0  0  0  0  0  0  0  0  0
  -13.2296  -19.0641  -24.0167 H   0  0  0  0  0  0  0  0  0  0  0  0
  -14.1947  -15.0041  -27.9783 H   0  0  0  0  0  0  0  0  0  0  0  0
  -14.8880  -12.6324  -27.8413 H   0  0  0  0  0  0  0  0  0  0  0  0
  -16.3266  -11.8193  -25.9992 H   0  0  0  0  0  0  0  0  0  0  0  0
  -17.0838  -13.4105  -24.2684 H   0  0  0  0  0  0  0  0  0  0  0  0
  1  2  2  0
  2  3  1  0
  3  4  1  0
  4  5  1  0
  5  6  1  0
  6  7  2  0
  7  8  1  0
  8  9  2  0
  4 10  2  0
 10 11  1  0
 11 12  2  0
 12 13  1  0
 13 14  2  0
 14 15  1  0
 15 16  2  0
 16  2  1  0
  9  5  1  0
 16 11  1  0
  3 17  1  0
  6 18  1  0
  7 19  1  0
  9 20  1  0
 12 21  1  0
 13 22  1  0
 14 23  1  0
 15 24  1  0
M  END
>  <score_type>  (5) 
oracle

>  <origin>  (5) 
autodockgpu

>  <energy>  (5) 
[-8.17, -8.17, -8.17, -8.17, -8.17, -8.17, -8.17, -8.17, -8.17, -8.17, -8.17, -8.17, -8.17, -8.17, -8.17, -8.17, -8.17, -8.17, -8.17, -8.17]

>  <meeko>  (5) 
{"free_energy": -8.17, "intermolecular_energy": -8.46, "internal_energy": -0.1}

$$$$

     RDKit          3D

 24 26  0  0  0  0  0  0  0  0999 V2000
  -17.2040  -15.6170  -23.2520 O   0  0  0  0  0  0  0  0  0  0  0  0
  -16.4670  -16.0180  -24.2050 C   0  0  0  0  0  0  0  0  0  0  0  0
  -16.0960  -17.3090  -24.2750 N   0  0  0  0  0  0  0  0  0  0  0  0
  -15.3140  -17.7130  -25.2950 C   0  0  0  0  0  0  0  0  0  0  0  0
  -14.8770  -19.0560  -25.4430 N   0  0  0  0  0  0  0  0  0  0  0  0
  -15.3240  -20.0430  -26.2460 C   0  0  0  0  0  0  0  0  0  0  0  0
  -14.5860  -21.1880  -26.0420 C   0  0  0  0  0  0  0  0  0  0  0  0
  -13.6750  -20.8960  -25.0990 N   0  0  0  0  0  0  0  0  0  0  0  0
  -13.8640  -19.6020  -24.7480 C   0  0  0  0  0  0  0  0  0  0  0  0
  -14.9400  -16.7940  -26.2040 N   0  0  0  0  0  0  0  0  0  0  0  0
  -15.2830  -15.5150  -26.1730 C   0  0  0  0  0  0  0  0  0  0  0  0
  -14.8530  -14.6340  -27.1520 C   0  0  0  0  0  0  0  0  0  0  0  0
  -15.2450  -13.3170  -27.0610 C   0  0  0  0  0  0  0  0  0  0  0  0
  -16.0440  -12.8600  -26.0340 C   0  0  0  0  0  0  0  0  0  0  0  0
  -16.4560  -13.7520  -25.0800 C   0  0  0  0  0  0  0  0  0  0  0  0
  -16.0880  -15.0810  -25.1300 C   0  0  0  0  0  0  0  0  0  0  0  0
  -16.3920  -18.0180  -23.5630 H   0  0  0  0  0  0  0  0  0  0  0  0
  -16.1560  -19.9476  -26.9593 H   0  0  0  0  0  0  0  0  0  0  0  0
  -14.7171  -22.1537  -26.5521 H   0  0  0  0  0  0  0  0  0  0  0  0
  -13.2674  -19.0680  -23.9937 H   0  0  0  0  0  0  0  0  0  0  0  0
  -14.2154  -14.9774  -27.9800 H   0  0  0  0  0  0  0  0  0  0  0  0
  -14.9103  -12.6071  -27.8318 H   0  0  0  0  0  0  0  0  0  0  0  0
  -16.3436  -11.8029  -25.9823 H   0  0  0  0  0  0  0  0  0  0  0  0
  -17.0944  -13.4013  -24.2557 H   0  0  0  0  0  0  0  0  0  0  0  0
  1  2  2  0
  2  3  1  0
  3  4  1  0
  4  5  1  0
  5  6  1  0
  6  7  2  0
  7  8  1  0
  8  9  2  0
  4 10  2  0
 10 11  1  0
 11 12  2  0
 12 13  1  0
 13 14  2  0
 14 15  1  0
 15 16  2  0
 16  2  1  0
  9  5  1  0
 16 11  1  0
  3 17  1  0
  6 18  1  0
  7 19  1  0
  9 20  1  0
 12 21  1  0
 13 22  1  0
 14 23  1  0
 15 24  1  0
M  END
>  <score_type>  (6) 
oracle

>  <origin>  (6) 
autodockgpu

>  <energy>  (6) 
[-8.17, -8.17, -8.17, -8.17, -8.17, -8.17, -8.17, -8.17, -8.17, -8.17, -8.17, -8.17, -8.17, -8.17, -8.17, -8.17, -8.17, -8.17, -8.17, -8.17]

>  <meeko>  (6) 
{"free_energy": -8.17, "intermolecular_energy": -8.47, "internal_energy": -0.1}

$$$$

     RDKit          3D

 24 26  0  0  0  0  0  0  0  0999 V2000
  -17.2000  -15.6820  -23.2490 O   0  0  0  0  0  0  0  0  0  0  0  0
  -16.4630  -16.0840  -24.2030 C   0  0  0  0  0  0  0  0  0  0  0  0
  -16.0910  -17.3740  -24.2720 N   0  0  0  0  0  0  0  0  0  0  0  0
  -15.3100  -17.7790  -25.2920 C   0  0  0  0  0  0  0  0  0  0  0  0
  -14.8720  -19.1210  -25.4390 N   0  0  0  0  0  0  0  0  0  0  0  0
  -15.3220  -20.1110  -26.2370 C   0  0  0  0  0  0  0  0  0  0  0  0
  -14.5810  -21.2540  -26.0350 C   0  0  0  0  0  0  0  0  0  0  0  0
  -13.6660  -20.9590  -25.0970 N   0  0  0  0  0  0  0  0  0  0  0  0
  -13.8550  -19.6650  -24.7480 C   0  0  0  0  0  0  0  0  0  0  0  0
  -14.9360  -16.8600  -26.2010 N   0  0  0  0  0  0  0  0  0  0  0  0
  -15.2790  -15.5810  -26.1710 C   0  0  0  0  0  0  0  0  0  0  0  0
  -14.8500  -14.7010  -27.1500 C   0  0  0  0  0  0  0  0  0  0  0  0
  -15.2430  -13.3830  -27.0600 C   0  0  0  0  0  0  0  0  0  0  0  0
  -16.0420  -12.9260  -26.0330 C   0  0  0  0  0  0  0  0  0  0  0  0
  -16.4540  -13.8180  -25.0780 C   0  0  0  0  0  0  0  0  0  0  0  0
  -16.0850  -15.1470  -25.1280 C   0  0  0  0  0  0  0  0  0  0  0  0
  -16.3870  -18.0830  -23.5600 H   0  0  0  0  0  0  0  0  0  0  0  0
  -16.1584  -20.0188  -26.9454 H   0  0  0  0  0  0  0  0  0  0  0  0
  -14.7128  -22.2207  -26.5431 H   0  0  0  0  0  0  0  0  0  0  0  0
  -13.2554  -19.1289  -23.9977 H   0  0  0  0  0  0  0  0  0  0  0  0
  -14.2123  -15.0447  -27.9778 H   0  0  0  0  0  0  0  0  0  0  0  0
  -14.9089  -12.6735  -27.8314 H   0  0  0  0  0  0  0  0  0  0  0  0
  -16.3419  -11.8689  -25.9817 H   0  0  0  0  0  0  0  0  0  0  0  0
  -17.0925  -13.4674  -24.2538 H   0  0  0  0  0  0  0  0  0  0  0  0
  1  2  2  0
  2  3  1  0
  3  4  1  0
  4  5  1  0
  5  6  1  0
  6  7  2  0
  7  8  1  0
  8  9  2  0
  4 10  2  0
 10 11  1  0
 11 12  2  0
 12 13  1  0
 13 14  2  0
 14 15  1  0
 15 16  2  0
 16  2  1  0
  9  5  1  0
 16 11  1  0
  3 17  1  0
  6 18  1  0
  7 19  1  0
  9 20  1  0
 12 21  1  0
 13 22  1  0
 14 23  1  0
 15 24  1  0
M  END
>  <score_type>  (7) 
oracle

>  <origin>  (7) 
autodockgpu

>  <energy>  (7) 
[-8.17, -8.17, -8.17, -8.17, -8.17, -8.17, -8.17, -8.17, -8.17, -8.17, -8.17, -8.17, -8.17, -8.17, -8.17, -8.17, -8.17, -8.17, -8.17, -8.17]

>  <meeko>  (7) 
{"free_energy": -8.17, "intermolecular_energy": -8.47, "internal_energy": -0.1}

$$$$

     RDKit          3D

 24 26  0  0  0  0  0  0  0  0999 V2000
  -17.2000  -15.6480  -23.2500 O   0  0  0  0  0  0  0  0  0  0  0  0
  -16.4610  -16.0470  -24.2030 C   0  0  0  0  0  0  0  0  0  0  0  0
  -16.0940  -17.3390  -24.2760 N   0  0  0  0  0  0  0  0  0  0  0  0
  -15.3090  -17.7420  -25.2950 C   0  0  0  0  0  0  0  0  0  0  0  0
  -14.8760  -19.0850  -25.4460 N   0  0  0  0  0  0  0  0  0  0  0  0
  -15.3240  -20.0680  -26.2540 C   0  0  0  0  0  0  0  0  0  0  0  0
  -14.5910  -21.2170  -26.0520 C   0  0  0  0  0  0  0  0  0  0  0  0
  -13.6810  -20.9310  -25.1060 N   0  0  0  0  0  0  0  0  0  0  0  0
  -13.8670  -19.6370  -24.7510 C   0  0  0  0  0  0  0  0  0  0  0  0
  -14.9290  -16.8200  -26.1990 N   0  0  0  0  0  0  0  0  0  0  0  0
  -15.2680  -15.5400  -26.1640 C   0  0  0  0  0  0  0  0  0  0  0  0
  -14.8310  -14.6580  -27.1380 C   0  0  0  0  0  0  0  0  0  0  0  0
  -15.2190  -13.3390  -27.0430 C   0  0  0  0  0  0  0  0  0  0  0  0
  -16.0200  -12.8840  -26.0170 C   0  0  0  0  0  0  0  0  0  0  0  0
  -16.4390  -13.7780  -25.0680 C   0  0  0  0  0  0  0  0  0  0  0  0
  -16.0750  -15.1080  -25.1220 C   0  0  0  0  0  0  0  0  0  0  0  0
  -16.3950  -18.0500  -23.5680 H   0  0  0  0  0  0  0  0  0  0  0  0
  -16.1533  -19.9670  -26.9696 H   0  0  0  0  0  0  0  0  0  0  0  0
  -14.7248  -22.1807  -26.5653 H   0  0  0  0  0  0  0  0  0  0  0  0
  -13.2705  -19.1077  -23.9934 H   0  0  0  0  0  0  0  0  0  0  0  0
  -14.1917  -15.0008  -27.9649 H   0  0  0  0  0  0  0  0  0  0  0  0
  -14.8791  -12.6270  -27.8095 H   0  0  0  0  0  0  0  0  0  0  0  0
  -16.3160  -11.8260  -25.9620 H   0  0  0  0  0  0  0  0  0  0  0  0
  -17.0795  -13.4284  -24.2449 H   0  0  0  0  0  0  0  0  0  0  0  0
  1  2  2  0
  2  3  1  0
  3  4  1  0
  4  5  1  0
  5  6  1  0
  6  7  2  0
  7  8  1  0
  8  9  2  0
  4 10  2  0
 10 11  1  0
 11 12  2  0
 12 13  1  0
 13 14  2  0
 14 15  1  0
 15 16  2  0
 16  2  1  0
  9  5  1  0
 16 11  1  0
  3 17  1  0
  6 18  1  0
  7 19  1  0
  9 20  1  0
 12 21  1  0
 13 22  1  0
 14 23  1  0
 15 24  1  0
M  END
>  <score_type>  (8) 
oracle

>  <origin>  (8) 
autodockgpu

>  <energy>  (8) 
[-8.17, -8.17, -8.17, -8.17, -8.17, -8.17, -8.17, -8.17, -8.17, -8.17, -8.17, -8.17, -8.17, -8.17, -8.17, -8.17, -8.17, -8.17, -8.17, -8.17]

>  <meeko>  (8) 
{"free_energy": -8.17, "intermolecular_energy": -8.47, "internal_energy": -0.1}

$$$$

     RDKit          3D

 24 26  0  0  0  0  0  0  0  0999 V2000
  -17.2060  -15.6560  -23.2520 O   0  0  0  0  0  0  0  0  0  0  0  0
  -16.4680  -16.0560  -24.2060 C   0  0  0  0  0  0  0  0  0  0  0  0
  -16.0980  -17.3470  -24.2770 N   0  0  0  0  0  0  0  0  0  0  0  0
  -15.3160  -17.7500  -25.2970 C   0  0  0  0  0  0  0  0  0  0  0  0
  -14.8800  -19.0930  -25.4470 N   0  0  0  0  0  0  0  0  0  0  0  0
  -15.3270  -20.0780  -26.2520 C   0  0  0  0  0  0  0  0  0  0  0  0
  -14.5900  -21.2240  -26.0490 C   0  0  0  0  0  0  0  0  0  0  0  0
  -13.6800  -20.9340  -25.1050 N   0  0  0  0  0  0  0  0  0  0  0  0
  -13.8680  -19.6410  -24.7520 C   0  0  0  0  0  0  0  0  0  0  0  0
  -14.9400  -16.8290  -26.2040 N   0  0  0  0  0  0  0  0  0  0  0  0
  -15.2820  -15.5500  -26.1710 C   0  0  0  0  0  0  0  0  0  0  0  0
  -14.8500  -14.6680  -27.1490 C   0  0  0  0  0  0  0  0  0  0  0  0
  -15.2410  -13.3510  -27.0550 C   0  0  0  0  0  0  0  0  0  0  0  0
  -16.0410  -12.8950  -26.0280 C   0  0  0  0  0  0  0  0  0  0  0  0
  -16.4550  -13.7880  -25.0760 C   0  0  0  0  0  0  0  0  0  0  0  0
  -16.0870  -15.1180  -25.1280 C   0  0  0  0  0  0  0  0  0  0  0  0
  -16.3960  -18.0570  -23.5670 H   0  0  0  0  0  0  0  0  0  0  0  0
  -16.1581  -19.9808  -26.9660 H   0  0  0  0  0  0  0  0  0  0  0  0
  -14.7214  -22.1889  -26.5606 H   0  0  0  0  0  0  0  0  0  0  0  0
  -13.2716  -19.1088  -23.9963 H   0  0  0  0  0  0  0  0  0  0  0  0
  -14.2124  -15.0106  -27.9774 H   0  0  0  0  0  0  0  0  0  0  0  0
  -14.9045  -12.6397  -27.8237 H   0  0  0  0  0  0  0  0  0  0  0  0
  -16.3397  -11.8377  -25.9749 H   0  0  0  0  0  0  0  0  0  0  0  0
  -17.0945  -13.4384  -24.2521 H   0  0  0  0  0  0  0  0  0  0  0  0
  1  2  2  0
  2  3  1  0
  3  4  1  0
  4  5  1  0
  5  6  1  0
  6  7  2  0
  7  8  1  0
  8  9  2  0
  4 10  2  0
 10 11  1  0
 11 12  2  0
 12 13  1  0
 13 14  2  0
 14 15  1  0
 15 16  2  0
 16  2  1  0
  9  5  1  0
 16 11  1  0
  3 17  1  0
  6 18  1  0
  7 19  1  0
  9 20  1  0
 12 21  1  0
 13 22  1  0
 14 23  1  0
 15 24  1  0
M  END
>  <score_type>  (9) 
oracle

>  <origin>  (9) 
autodockgpu

>  <energy>  (9) 
[-8.17, -8.17, -8.17, -8.17, -8.17, -8.17, -8.17, -8.17, -8.17, -8.17, -8.17, -8.17, -8.17, -8.17, -8.17, -8.17, -8.17, -8.17, -8.17, -8.17]

>  <meeko>  (9) 
{"free_energy": -8.17, "intermolecular_energy": -8.47, "internal_energy": -0.1}

$$$$

     RDKit          3D

 24 26  0  0  0  0  0  0  0  0999 V2000
  -17.2050  -15.6470  -23.2470 O   0  0  0  0  0  0  0  0  0  0  0  0
  -16.4700  -16.0490  -24.2010 C   0  0  0  0  0  0  0  0  0  0  0  0
  -16.1040  -17.3410  -24.2730 N   0  0  0  0  0  0  0  0  0  0  0  0
  -15.3230  -17.7470  -25.2940 C   0  0  0  0  0  0  0  0  0  0  0  0
  -14.8920  -19.0910  -25.4440 N   0  0  0  0  0  0  0  0  0  0  0  0
  -15.3440  -20.0750  -26.2480 C   0  0  0  0  0  0  0  0  0  0  0  0
  -14.6100  -21.2240  -26.0470 C   0  0  0  0  0  0  0  0  0  0  0  0
  -13.6970  -20.9370  -25.1050 N   0  0  0  0  0  0  0  0  0  0  0  0
  -13.8810  -19.6420  -24.7510 C   0  0  0  0  0  0  0  0  0  0  0  0
  -14.9450  -16.8270  -26.2010 N   0  0  0  0  0  0  0  0  0  0  0  0
  -15.2820  -15.5470  -26.1680 C   0  0  0  0  0  0  0  0  0  0  0  0
  -14.8480  -14.6670  -27.1450 C   0  0  0  0  0  0  0  0  0  0  0  0
  -15.2350  -13.3480  -27.0510 C   0  0  0  0  0  0  0  0  0  0  0  0
  -16.0320  -12.8900  -26.0240 C   0  0  0  0  0  0  0  0  0  0  0  0
  -16.4490  -13.7810  -25.0710 C   0  0  0  0  0  0  0  0  0  0  0  0
  -16.0860  -15.1120  -25.1240 C   0  0  0  0  0  0  0  0  0  0  0  0
  -16.4030  -18.0510  -23.5630 H   0  0  0  0  0  0  0  0  0  0  0  0
  -16.1766  -19.9751  -26.9599 H   0  0  0  0  0  0  0  0  0  0  0  0
  -14.7456  -22.1883  -26.5586 H   0  0  0  0  0  0  0  0  0  0  0  0
  -13.2819  -19.1118  -23.9960 H   0  0  0  0  0  0  0  0  0  0  0  0
  -14.2117  -15.0115  -27.9735 H   0  0  0  0  0  0  0  0  0  0  0  0
  -14.8971  -12.6378  -27.8201 H   0  0  0  0  0  0  0  0  0  0  0  0
  -16.3269  -11.8316  -25.9709 H   0  0  0  0  0  0  0  0  0  0  0  0
  -17.0862  -13.4289  -24.2464 H   0  0  0  0  0  0  0  0  0  0  0  0
  1  2  2  0
  2  3  1  0
  3  4  1  0
  4  5  1  0
  5  6  1  0
  6  7  2  0
  7  8  1  0
  8  9  2  0
  4 10  2  0
 10 11  1  0
 11 12  2  0
 12 13  1  0
 13 14  2  0
 14 15  1  0
 15 16  2  0
 16  2  1  0
  9  5  1  0
 16 11  1  0
  3 17  1  0
  6 18  1  0
  7 19  1  0
  9 20  1  0
 12 21  1  0
 13 22  1  0
 14 23  1  0
 15 24  1  0
M  END
>  <score_type>  (10) 
oracle

>  <origin>  (10) 
autodockgpu

>  <energy>  (10) 
[-8.17, -8.17, -8.17, -8.17, -8.17, -8.17, -8.17, -8.17, -8.17, -8.17, -8.17, -8.17, -8.17, -8.17, -8.17, -8.17, -8.17, -8.17, -8.17, -8.17]

>  <meeko>  (10) 
{"free_energy": -8.17, "intermolecular_energy": -8.47, "internal_energy": -0.1}

$$$$

     RDKit          3D

 24 26  0  0  0  0  0  0  0  0999 V2000
  -17.2020  -15.6520  -23.2510 O   0  0  0  0  0  0  0  0  0  0  0  0
  -16.4660  -16.0530  -24.2050 C   0  0  0  0  0  0  0  0  0  0  0  0
  -16.0990  -17.3450  -24.2780 N   0  0  0  0  0  0  0  0  0  0  0  0
  -15.3180  -17.7490  -25.2980 C   0  0  0  0  0  0  0  0  0  0  0  0
  -14.8850  -19.0930  -25.4490 N   0  0  0  0  0  0  0  0  0  0  0  0
  -15.3350  -20.0770  -26.2550 C   0  0  0  0  0  0  0  0  0  0  0  0
  -14.6000  -21.2250  -26.0530 C   0  0  0  0  0  0  0  0  0  0  0  0
  -13.6890  -20.9380  -25.1090 N   0  0  0  0  0  0  0  0  0  0  0  0
  -13.8750  -19.6440  -24.7550 C   0  0  0  0  0  0  0  0  0  0  0  0
  -14.9410  -16.8290  -26.2050 N   0  0  0  0  0  0  0  0  0  0  0  0
  -15.2800  -15.5490  -26.1710 C   0  0  0  0  0  0  0  0  0  0  0  0
  -14.8460  -14.6670  -27.1480 C   0  0  0  0  0  0  0  0  0  0  0  0
  -15.2340  -13.3490  -27.0540 C   0  0  0  0  0  0  0  0  0  0  0  0
  -16.0320  -12.8920  -26.0250 C   0  0  0  0  0  0  0  0  0  0  0  0
  -16.4480  -13.7850  -25.0740 C   0  0  0  0  0  0  0  0  0  0  0  0
  -16.0840  -15.1150  -25.1270 C   0  0  0  0  0  0  0  0  0  0  0  0
  -16.3980  -18.0550  -23.5680 H   0  0  0  0  0  0  0  0  0  0  0  0
  -16.1663  -19.9775  -26.9684 H   0  0  0  0  0  0  0  0  0  0  0  0
  -14.7336  -22.1891  -26.5654 H   0  0  0  0  0  0  0  0  0  0  0  0
  -13.2777  -19.1138  -23.9987 H   0  0  0  0  0  0  0  0  0  0  0  0
  -14.2088  -15.0105  -27.9762 H   0  0  0  0  0  0  0  0  0  0  0  0
  -14.8973  -12.6383  -27.8231 H   0  0  0  0  0  0  0  0  0  0  0  0
  -16.3273  -11.8338  -25.9700 H   0  0  0  0  0  0  0  0  0  0  0  0
  -17.0864  -13.4345  -24.2496 H   0  0  0  0  0  0  0  0  0  0  0  0
  1  2  2  0
  2  3  1  0
  3  4  1  0
  4  5  1  0
  5  6  1  0
  6  7  2  0
  7  8  1  0
  8  9  2  0
  4 10  2  0
 10 11  1  0
 11 12  2  0
 12 13  1  0
 13 14  2  0
 14 15  1  0
 15 16  2  0
 16  2  1  0
  9  5  1  0
 16 11  1  0
  3 17  1  0
  6 18  1  0
  7 19  1  0
  9 20  1  0
 12 21  1  0
 13 22  1  0
 14 23  1  0
 15 24  1  0
M  END
>  <score_type>  (11) 
oracle

>  <origin>  (11) 
autodockgpu

>  <energy>  (11) 
[-8.17, -8.17, -8.17, -8.17, -8.17, -8.17, -8.17, -8.17, -8.17, -8.17, -8.17, -8.17, -8.17, -8.17, -8.17, -8.17, -8.17, -8.17, -8.17, -8.17]

>  <meeko>  (11) 
{"free_energy": -8.17, "intermolecular_energy": -8.47, "internal_energy": -0.1}

$$$$

     RDKit          3D

 24 26  0  0  0  0  0  0  0  0999 V2000
  -17.2050  -15.6310  -23.2540 O   0  0  0  0  0  0  0  0  0  0  0  0
  -16.4660  -16.0360  -24.2060 C   0  0  0  0  0  0  0  0  0  0  0  0
  -16.1010  -17.3290  -24.2740 N   0  0  0  0  0  0  0  0  0  0  0  0
  -15.3180  -17.7370  -25.2910 C   0  0  0  0  0  0  0  0  0  0  0  0
  -14.8880  -19.0820  -25.4370 N   0  0  0  0  0  0  0  0  0  0  0  0
  -15.3420  -20.0690  -26.2360 C   0  0  0  0  0  0  0  0  0  0  0  0
  -14.6080  -21.2170  -26.0320 C   0  0  0  0  0  0  0  0  0  0  0  0
  -13.6920  -20.9260  -25.0940 N   0  0  0  0  0  0  0  0  0  0  0  0
  -13.8750  -19.6300  -24.7450 C   0  0  0  0  0  0  0  0  0  0  0  0
  -14.9370  -16.8200  -26.1990 N   0  0  0  0  0  0  0  0  0  0  0  0
  -15.2730  -15.5390  -26.1700 C   0  0  0  0  0  0  0  0  0  0  0  0
  -14.8360  -14.6610  -27.1480 C   0  0  0  0  0  0  0  0  0  0  0  0
  -15.2220  -13.3420  -27.0580 C   0  0  0  0  0  0  0  0  0  0  0  0
  -16.0210  -12.8810  -26.0330 C   0  0  0  0  0  0  0  0  0  0  0  0
  -16.4410  -13.7700  -25.0800 C   0  0  0  0  0  0  0  0  0  0  0  0
  -16.0790  -15.1010  -25.1290 C   0  0  0  0  0  0  0  0  0  0  0  0
  -16.4040  -18.0360  -23.5630 H   0  0  0  0  0  0  0  0  0  0  0  0
  -16.1761  -19.9718  -26.9465 H   0  0  0  0  0  0  0  0  0  0  0  0
  -14.7455  -22.1836  -26.5387 H   0  0  0  0  0  0  0  0  0  0  0  0
  -13.2736  -19.0966  -23.9941 H   0  0  0  0  0  0  0  0  0  0  0  0
  -14.1979  -15.0078  -27.9742 H   0  0  0  0  0  0  0  0  0  0  0  0
  -14.8822  -12.6339  -27.8281 H   0  0  0  0  0  0  0  0  0  0  0  0
  -16.3146  -11.8221  -25.9821 H   0  0  0  0  0  0  0  0  0  0  0  0
  -17.0804  -13.4159  -24.2580 H   0  0  0  0  0  0  0  0  0  0  0  0
  1  2  2  0
  2  3  1  0
  3  4  1  0
  4  5  1  0
  5  6  1  0
  6  7  2  0
  7  8  1  0
  8  9  2  0
  4 10  2  0
 10 11  1  0
 11 12  2  0
 12 13  1  0
 13 14  2  0
 14 15  1  0
 15 16  2  0
 16  2  1  0
  9  5  1  0
 16 11  1  0
  3 17  1  0
  6 18  1  0
  7 19  1  0
  9 20  1  0
 12 21  1  0
 13 22  1  0
 14 23  1  0
 15 24  1  0
M  END
>  <score_type>  (12) 
oracle

>  <origin>  (12) 
autodockgpu

>  <energy>  (12) 
[-8.17, -8.17, -8.17, -8.17, -8.17, -8.17, -8.17, -8.17, -8.17, -8.17, -8.17, -8.17, -8.17, -8.17, -8.17, -8.17, -8.17, -8.17, -8.17, -8.17]

>  <meeko>  (12) 
{"free_energy": -8.17, "intermolecular_energy": -8.47, "internal_energy": -0.1}

$$$$

     RDKit          3D

 24 26  0  0  0  0  0  0  0  0999 V2000
  -17.2040  -15.6800  -23.2550 O   0  0  0  0  0  0  0  0  0  0  0  0
  -16.4660  -16.0810  -24.2080 C   0  0  0  0  0  0  0  0  0  0  0  0
  -16.0970  -17.3720  -24.2800 N   0  0  0  0  0  0  0  0  0  0  0  0
  -15.3140  -17.7750  -25.3000 C   0  0  0  0  0  0  0  0  0  0  0  0
  -14.8800  -19.1180  -25.4500 N   0  0  0  0  0  0  0  0  0  0  0  0
  -15.3280  -20.1040  -26.2540 C   0  0  0  0  0  0  0  0  0  0  0  0
  -14.5910  -21.2500  -26.0520 C   0  0  0  0  0  0  0  0  0  0  0  0
  -13.6800  -20.9610  -25.1090 N   0  0  0  0  0  0  0  0  0  0  0  0
  -13.8680  -19.6670  -24.7550 C   0  0  0  0  0  0  0  0  0  0  0  0
  -14.9380  -16.8550  -26.2060 N   0  0  0  0  0  0  0  0  0  0  0  0
  -15.2780  -15.5750  -26.1730 C   0  0  0  0  0  0  0  0  0  0  0  0
  -14.8450  -14.6930  -27.1500 C   0  0  0  0  0  0  0  0  0  0  0  0
  -15.2350  -13.3750  -27.0570 C   0  0  0  0  0  0  0  0  0  0  0  0
  -16.0350  -12.9200  -26.0300 C   0  0  0  0  0  0  0  0  0  0  0  0
  -16.4500  -13.8130  -25.0780 C   0  0  0  0  0  0  0  0  0  0  0  0
  -16.0840  -15.1420  -25.1300 C   0  0  0  0  0  0  0  0  0  0  0  0
  -16.3960  -18.0820  -23.5700 H   0  0  0  0  0  0  0  0  0  0  0  0
  -16.1602  -20.0071  -26.9668 H   0  0  0  0  0  0  0  0  0  0  0  0
  -14.7231  -22.2146  -26.5639 H   0  0  0  0  0  0  0  0  0  0  0  0
  -13.2716  -19.1354  -23.9989 H   0  0  0  0  0  0  0  0  0  0  0  0
  -14.2069  -15.0360  -27.9777 H   0  0  0  0  0  0  0  0  0  0  0  0
  -14.8980  -12.6638  -27.8255 H   0  0  0  0  0  0  0  0  0  0  0  0
  -16.3334  -11.8626  -25.9765 H   0  0  0  0  0  0  0  0  0  0  0  0
  -17.0891  -13.4628  -24.2540 H   0  0  0  0  0  0  0  0  0  0  0  0
  1  2  2  0
  2  3  1  0
  3  4  1  0
  4  5  1  0
  5  6  1  0
  6  7  2  0
  7  8  1  0
  8  9  2  0
  4 10  2  0
 10 11  1  0
 11 12  2  0
 12 13  1  0
 13 14  2  0
 14 15  1  0
 15 16  2  0
 16  2  1  0
  9  5  1  0
 16 11  1  0
  3 17  1  0
  6 18  1  0
  7 19  1  0
  9 20  1  0
 12 21  1  0
 13 22  1  0
 14 23  1  0
 15 24  1  0
M  END
>  <score_type>  (13) 
oracle

>  <origin>  (13) 
autodockgpu

>  <energy>  (13) 
[-8.17, -8.17, -8.17, -8.17, -8.17, -8.17, -8.17, -8.17, -8.17, -8.17, -8.17, -8.17, -8.17, -8.17, -8.17, -8.17, -8.17, -8.17, -8.17, -8.17]

>  <meeko>  (13) 
{"free_energy": -8.17, "intermolecular_energy": -8.47, "internal_energy": -0.1}

$$$$

     RDKit          3D

 24 26  0  0  0  0  0  0  0  0999 V2000
  -17.2050  -15.6580  -23.2630 O   0  0  0  0  0  0  0  0  0  0  0  0
  -16.4690  -16.0580  -24.2170 C   0  0  0  0  0  0  0  0  0  0  0  0
  -16.0970  -17.3490  -24.2880 N   0  0  0  0  0  0  0  0  0  0  0  0
  -15.3160  -17.7520  -25.3090 C   0  0  0  0  0  0  0  0  0  0  0  0
  -14.8790  -19.0940  -25.4580 N   0  0  0  0  0  0  0  0  0  0  0  0
  -15.3260  -20.0820  -26.2610 C   0  0  0  0  0  0  0  0  0  0  0  0
  -14.5870  -21.2260  -26.0590 C   0  0  0  0  0  0  0  0  0  0  0  0
  -13.6750  -20.9340  -25.1160 N   0  0  0  0  0  0  0  0  0  0  0  0
  -13.8650  -19.6400  -24.7640 C   0  0  0  0  0  0  0  0  0  0  0  0
  -14.9440  -16.8320  -26.2180 N   0  0  0  0  0  0  0  0  0  0  0  0
  -15.2870  -15.5530  -26.1860 C   0  0  0  0  0  0  0  0  0  0  0  0
  -14.8580  -14.6720  -27.1650 C   0  0  0  0  0  0  0  0  0  0  0  0
  -15.2510  -13.3550  -27.0730 C   0  0  0  0  0  0  0  0  0  0  0  0
  -16.0490  -12.8990  -26.0440 C   0  0  0  0  0  0  0  0  0  0  0  0
  -16.4600  -13.7920  -25.0900 C   0  0  0  0  0  0  0  0  0  0  0  0
  -16.0910  -15.1210  -25.1420 C   0  0  0  0  0  0  0  0  0  0  0  0
  -16.3920  -18.0590  -23.5760 H   0  0  0  0  0  0  0  0  0  0  0  0
  -16.1591  -19.9873  -26.9730 H   0  0  0  0  0  0  0  0  0  0  0  0
  -14.7176  -22.1913  -26.5701 H   0  0  0  0  0  0  0  0  0  0  0  0
  -13.2684  -19.1061  -24.0097 H   0  0  0  0  0  0  0  0  0  0  0  0
  -14.2207  -15.0148  -27.9935 H   0  0  0  0  0  0  0  0  0  0  0  0
  -14.9182  -12.6446  -27.8441 H   0  0  0  0  0  0  0  0  0  0  0  0
  -16.3485  -11.8419  -25.9909 H   0  0  0  0  0  0  0  0  0  0  0  0
  -17.0978  -13.4424  -24.2648 H   0  0  0  0  0  0  0  0  0  0  0  0
  1  2  2  0
  2  3  1  0
  3  4  1  0
  4  5  1  0
  5  6  1  0
  6  7  2  0
  7  8  1  0
  8  9  2  0
  4 10  2  0
 10 11  1  0
 11 12  2  0
 12 13  1  0
 13 14  2  0
 14 15  1  0
 15 16  2  0
 16  2  1  0
  9  5  1  0
 16 11  1  0
  3 17  1  0
  6 18  1  0
  7 19  1  0
  9 20  1  0
 12 21  1  0
 13 22  1  0
 14 23  1  0
 15 24  1  0
M  END
>  <score_type>  (14) 
oracle

>  <origin>  (14) 
autodockgpu

>  <energy>  (14) 
[-8.17, -8.17, -8.17, -8.17, -8.17, -8.17, -8.17, -8.17, -8.17, -8.17, -8.17, -8.17, -8.17, -8.17, -8.17, -8.17, -8.17, -8.17, -8.17, -8.17]

>  <meeko>  (14) 
{"free_energy": -8.17, "intermolecular_energy": -8.47, "internal_energy": -0.1}

$$$$

     RDKit          3D

 24 26  0  0  0  0  0  0  0  0999 V2000
  -17.2040  -15.6450  -23.2810 O   0  0  0  0  0  0  0  0  0  0  0  0
  -16.4600  -16.0480  -24.2290 C   0  0  0  0  0  0  0  0  0  0  0  0
  -16.0870  -17.3390  -24.2930 N   0  0  0  0  0  0  0  0  0  0  0  0
  -15.2990  -17.7440  -25.3070 C   0  0  0  0  0  0  0  0  0  0  0  0
  -14.8590  -19.0870  -25.4480 N   0  0  0  0  0  0  0  0  0  0  0  0
  -15.3290  -20.0900  -26.2180 C   0  0  0  0  0  0  0  0  0  0  0  0
  -14.5780  -21.2270  -26.0230 C   0  0  0  0  0  0  0  0  0  0  0  0
  -13.6350  -20.9150  -25.1180 N   0  0  0  0  0  0  0  0  0  0  0  0
  -13.8190  -19.6160  -24.7810 C   0  0  0  0  0  0  0  0  0  0  0  0
  -14.9190  -16.8270  -26.2150 N   0  0  0  0  0  0  0  0  0  0  0  0
  -15.2640  -15.5480  -26.1900 C   0  0  0  0  0  0  0  0  0  0  0  0
  -14.8280  -14.6700  -27.1680 C   0  0  0  0  0  0  0  0  0  0  0  0
  -15.2220  -13.3520  -27.0830 C   0  0  0  0  0  0  0  0  0  0  0  0
  -16.0280  -12.8940  -26.0620 C   0  0  0  0  0  0  0  0  0  0  0  0
  -16.4460  -13.7840  -25.1080 C   0  0  0  0  0  0  0  0  0  0  0  0
  -16.0760  -15.1130  -25.1530 C   0  0  0  0  0  0  0  0  0  0  0  0
  -16.3880  -18.0460  -23.5810 H   0  0  0  0  0  0  0  0  0  0  0  0
  -16.1870  -20.0108  -26.9018 H   0  0  0  0  0  0  0  0  0  0  0  0
  -14.7218  -22.2014  -26.5127 H   0  0  0  0  0  0  0  0  0  0  0  0
  -13.1992  -19.0667  -24.0571 H   0  0  0  0  0  0  0  0  0  0  0  0
  -14.1845  -15.0152  -27.9906 H   0  0  0  0  0  0  0  0  0  0  0  0
  -14.8831  -12.6436  -27.8533 H   0  0  0  0  0  0  0  0  0  0  0  0
  -16.3288  -11.8370  -26.0146 H   0  0  0  0  0  0  0  0  0  0  0  0
  -17.0902  -13.4320  -24.2888 H   0  0  0  0  0  0  0  0  0  0  0  0
  1  2  2  0
  2  3  1  0
  3  4  1  0
  4  5  1  0
  5  6  1  0
  6  7  2  0
  7  8  1  0
  8  9  2  0
  4 10  2  0
 10 11  1  0
 11 12  2  0
 12 13  1  0
 13 14  2  0
 14 15  1  0
 15 16  2  0
 16  2  1  0
  9  5  1  0
 16 11  1  0
  3 17  1  0
  6 18  1  0
  7 19  1  0
  9 20  1  0
 12 21  1  0
 13 22  1  0
 14 23  1  0
 15 24  1  0
M  END
>  <score_type>  (15) 
oracle

>  <origin>  (15) 
autodockgpu

>  <energy>  (15) 
[-8.17, -8.17, -8.17, -8.17, -8.17, -8.17, -8.17, -8.17, -8.17, -8.17, -8.17, -8.17, -8.17, -8.17, -8.17, -8.17, -8.17, -8.17, -8.17, -8.17]

>  <meeko>  (15) 
{"free_energy": -8.17, "intermolecular_energy": -8.46, "internal_energy": -0.1}

$$$$

     RDKit          3D

 24 26  0  0  0  0  0  0  0  0999 V2000
  -17.2050  -15.6520  -23.2690 O   0  0  0  0  0  0  0  0  0  0  0  0
  -16.4660  -16.0560  -24.2200 C   0  0  0  0  0  0  0  0  0  0  0  0
  -16.0990  -17.3480  -24.2870 N   0  0  0  0  0  0  0  0  0  0  0  0
  -15.3140  -17.7560  -25.3040 C   0  0  0  0  0  0  0  0  0  0  0  0
  -14.8820  -19.1000  -25.4490 N   0  0  0  0  0  0  0  0  0  0  0  0
  -15.3320  -20.0880  -26.2490 C   0  0  0  0  0  0  0  0  0  0  0  0
  -14.5980  -21.2350  -26.0430 C   0  0  0  0  0  0  0  0  0  0  0  0
  -13.6850  -20.9430  -25.1020 N   0  0  0  0  0  0  0  0  0  0  0  0
  -13.8700  -19.6480  -24.7540 C   0  0  0  0  0  0  0  0  0  0  0  0
  -14.9330  -16.8380  -26.2120 N   0  0  0  0  0  0  0  0  0  0  0  0
  -15.2720  -15.5580  -26.1830 C   0  0  0  0  0  0  0  0  0  0  0  0
  -14.8340  -14.6800  -27.1610 C   0  0  0  0  0  0  0  0  0  0  0  0
  -15.2220  -13.3610  -27.0720 C   0  0  0  0  0  0  0  0  0  0  0  0
  -16.0240  -12.9010  -26.0480 C   0  0  0  0  0  0  0  0  0  0  0  0
  -16.4430  -13.7910  -25.0950 C   0  0  0  0  0  0  0  0  0  0  0  0
  -16.0790  -15.1210  -25.1430 C   0  0  0  0  0  0  0  0  0  0  0  0
  -16.4000  -18.0560  -23.5760 H   0  0  0  0  0  0  0  0  0  0  0  0
  -16.1640  -19.9918  -26.9621 H   0  0  0  0  0  0  0  0  0  0  0  0
  -14.7331  -22.2017  -26.5502 H   0  0  0  0  0  0  0  0  0  0  0  0
  -13.2710  -19.1142  -24.0015 H   0  0  0  0  0  0  0  0  0  0  0  0
  -14.1941  -15.0264  -27.9859 H   0  0  0  0  0  0  0  0  0  0  0  0
  -14.8817  -12.6525  -27.8415 H   0  0  0  0  0  0  0  0  0  0  0  0
  -16.3204  -11.8429  -25.9980 H   0  0  0  0  0  0  0  0  0  0  0  0
  -17.0836  -13.4378  -24.2735 H   0  0  0  0  0  0  0  0  0  0  0  0
  1  2  2  0
  2  3  1  0
  3  4  1  0
  4  5  1  0
  5  6  1  0
  6  7  2  0
  7  8  1  0
  8  9  2  0
  4 10  2  0
 10 11  1  0
 11 12  2  0
 12 13  1  0
 13 14  2  0
 14 15  1  0
 15 16  2  0
 16  2  1  0
  9  5  1  0
 16 11  1  0
  3 17  1  0
  6 18  1  0
  7 19  1  0
  9 20  1  0
 12 21  1  0
 13 22  1  0
 14 23  1  0
 15 24  1  0
M  END
>  <score_type>  (16) 
oracle

>  <origin>  (16) 
autodockgpu

>  <energy>  (16) 
[-8.17, -8.17, -8.17, -8.17, -8.17, -8.17, -8.17, -8.17, -8.17, -8.17, -8.17, -8.17, -8.17, -8.17, -8.17, -8.17, -8.17, -8.17, -8.17, -8.17]

>  <meeko>  (16) 
{"free_energy": -8.17, "intermolecular_energy": -8.47, "internal_energy": -0.1}

$$$$

     RDKit          3D

 24 26  0  0  0  0  0  0  0  0999 V2000
  -17.2020  -15.6760  -23.2600 O   0  0  0  0  0  0  0  0  0  0  0  0
  -16.4650  -16.0780  -24.2130 C   0  0  0  0  0  0  0  0  0  0  0  0
  -16.0940  -17.3680  -24.2820 N   0  0  0  0  0  0  0  0  0  0  0  0
  -15.3120  -17.7730  -25.3030 C   0  0  0  0  0  0  0  0  0  0  0  0
  -14.8740  -19.1150  -25.4500 N   0  0  0  0  0  0  0  0  0  0  0  0
  -15.3210  -20.1030  -26.2520 C   0  0  0  0  0  0  0  0  0  0  0  0
  -14.5830  -21.2480  -26.0480 C   0  0  0  0  0  0  0  0  0  0  0  0
  -13.6720  -20.9550  -25.1050 N   0  0  0  0  0  0  0  0  0  0  0  0
  -13.8620  -19.6610  -24.7540 C   0  0  0  0  0  0  0  0  0  0  0  0
  -14.9380  -16.8540  -26.2120 N   0  0  0  0  0  0  0  0  0  0  0  0
  -15.2810  -15.5750  -26.1810 C   0  0  0  0  0  0  0  0  0  0  0  0
  -14.8510  -14.6950  -27.1610 C   0  0  0  0  0  0  0  0  0  0  0  0
  -15.2440  -13.3770  -27.0700 C   0  0  0  0  0  0  0  0  0  0  0  0
  -16.0430  -12.9200  -26.0430 C   0  0  0  0  0  0  0  0  0  0  0  0
  -16.4550  -13.8120  -25.0890 C   0  0  0  0  0  0  0  0  0  0  0  0
  -16.0860  -15.1410  -25.1380 C   0  0  0  0  0  0  0  0  0  0  0  0
  -16.3900  -18.0770  -23.5710 H   0  0  0  0  0  0  0  0  0  0  0  0
  -16.1534  -20.0082  -26.9649 H   0  0  0  0  0  0  0  0  0  0  0  0
  -14.7140  -22.2139  -26.5578 H   0  0  0  0  0  0  0  0  0  0  0  0
  -13.2666  -19.1270  -23.9988 H   0  0  0  0  0  0  0  0  0  0  0  0
  -14.2135  -15.0387  -27.9889 H   0  0  0  0  0  0  0  0  0  0  0  0
  -14.9097  -12.6672  -27.8410 H   0  0  0  0  0  0  0  0  0  0  0  0
  -16.3426  -11.8629  -25.9913 H   0  0  0  0  0  0  0  0  0  0  0  0
  -17.0943  -13.4614  -24.2653 H   0  0  0  0  0  0  0  0  0  0  0  0
  1  2  2  0
  2  3  1  0
  3  4  1  0
  4  5  1  0
  5  6  1  0
  6  7  2  0
  7  8  1  0
  8  9  2  0
  4 10  2  0
 10 11  1  0
 11 12  2  0
 12 13  1  0
 13 14  2  0
 14 15  1  0
 15 16  2  0
 16  2  1  0
  9  5  1  0
 16 11  1  0
  3 17  1  0
  6 18  1  0
  7 19  1  0
  9 20  1  0
 12 21  1  0
 13 22  1  0
 14 23  1  0
 15 24  1  0
M  END
>  <score_type>  (17) 
oracle

>  <origin>  (17) 
autodockgpu

>  <energy>  (17) 
[-8.17, -8.17, -8.17, -8.17, -8.17, -8.17, -8.17, -8.17, -8.17, -8.17, -8.17, -8.17, -8.17, -8.17, -8.17, -8.17, -8.17, -8.17, -8.17, -8.17]

>  <meeko>  (17) 
{"free_energy": -8.17, "intermolecular_energy": -8.47, "internal_energy": -0.1}

$$$$

     RDKit          3D

 24 26  0  0  0  0  0  0  0  0999 V2000
  -17.2060  -15.6400  -23.2530 O   0  0  0  0  0  0  0  0  0  0  0  0
  -16.4690  -16.0450  -24.2040 C   0  0  0  0  0  0  0  0  0  0  0  0
  -16.1040  -17.3370  -24.2730 N   0  0  0  0  0  0  0  0  0  0  0  0
  -15.3220  -17.7460  -25.2910 C   0  0  0  0  0  0  0  0  0  0  0  0
  -14.8910  -19.0900  -25.4380 N   0  0  0  0  0  0  0  0  0  0  0  0
  -15.3430  -20.0770  -26.2380 C   0  0  0  0  0  0  0  0  0  0  0  0
  -14.6100  -21.2250  -26.0340 C   0  0  0  0  0  0  0  0  0  0  0  0
  -13.6970  -20.9350  -25.0930 N   0  0  0  0  0  0  0  0  0  0  0  0
  -13.8800  -19.6400  -24.7430 C   0  0  0  0  0  0  0  0  0  0  0  0
  -14.9420  -16.8280  -26.2000 N   0  0  0  0  0  0  0  0  0  0  0  0
  -15.2790  -15.5480  -26.1700 C   0  0  0  0  0  0  0  0  0  0  0  0
  -14.8420  -14.6700  -27.1490 C   0  0  0  0  0  0  0  0  0  0  0  0
  -15.2280  -13.3500  -27.0590 C   0  0  0  0  0  0  0  0  0  0  0  0
  -16.0270  -12.8890  -26.0330 C   0  0  0  0  0  0  0  0  0  0  0  0
  -16.4460  -13.7790  -25.0800 C   0  0  0  0  0  0  0  0  0  0  0  0
  -16.0830  -15.1100  -25.1290 C   0  0  0  0  0  0  0  0  0  0  0  0
  -16.4050  -18.0450  -23.5620 H   0  0  0  0  0  0  0  0  0  0  0  0
  -16.1759  -19.9794  -26.9499 H   0  0  0  0  0  0  0  0  0  0  0  0
  -14.7459  -22.1908  -26.5426 H   0  0  0  0  0  0  0  0  0  0  0  0
  -13.2806  -19.1080  -23.9895 H   0  0  0  0  0  0  0  0  0  0  0  0
  -14.2044  -15.0171  -27.9754 H   0  0  0  0  0  0  0  0  0  0  0  0
  -14.8884  -12.6419  -27.8292 H   0  0  0  0  0  0  0  0  0  0  0  0
  -16.3210  -11.8303  -25.9815 H   0  0  0  0  0  0  0  0  0  0  0  0
  -17.0856  -13.4256  -24.2578 H   0  0  0  0  0  0  0  0  0  0  0  0
  1  2  2  0
  2  3  1  0
  3  4  1  0
  4  5  1  0
  5  6  1  0
  6  7  2  0
  7  8  1  0
  8  9  2  0
  4 10  2  0
 10 11  1  0
 11 12  2  0
 12 13  1  0
 13 14  2  0
 14 15  1  0
 15 16  2  0
 16  2  1  0
  9  5  1  0
 16 11  1  0
  3 17  1  0
  6 18  1  0
  7 19  1  0
  9 20  1  0
 12 21  1  0
 13 22  1  0
 14 23  1  0
 15 24  1  0
M  END
>  <score_type>  (18) 
oracle

>  <origin>  (18) 
autodockgpu

>  <energy>  (18) 
[-8.17, -8.17, -8.17, -8.17, -8.17, -8.17, -8.17, -8.17, -8.17, -8.17, -8.17, -8.17, -8.17, -8.17, -8.17, -8.17, -8.17, -8.17, -8.17, -8.17]

>  <meeko>  (18) 
{"free_energy": -8.17, "intermolecular_energy": -8.47, "internal_energy": -0.1}

$$$$

     RDKit          3D

 24 26  0  0  0  0  0  0  0  0999 V2000
  -17.2040  -15.6800  -23.2560 O   0  0  0  0  0  0  0  0  0  0  0  0
  -16.4660  -16.0810  -24.2090 C   0  0  0  0  0  0  0  0  0  0  0  0
  -16.0950  -17.3720  -24.2780 N   0  0  0  0  0  0  0  0  0  0  0  0
  -15.3120  -17.7770  -25.2970 C   0  0  0  0  0  0  0  0  0  0  0  0
  -14.8750  -19.1200  -25.4440 N   0  0  0  0  0  0  0  0  0  0  0  0
  -15.3240  -20.1080  -26.2450 C   0  0  0  0  0  0  0  0  0  0  0  0
  -14.5850  -21.2530  -26.0410 C   0  0  0  0  0  0  0  0  0  0  0  0
  -13.6720  -20.9590  -25.1010 N   0  0  0  0  0  0  0  0  0  0  0  0
  -13.8610  -19.6640  -24.7500 C   0  0  0  0  0  0  0  0  0  0  0  0
  -14.9370  -16.8580  -26.2060 N   0  0  0  0  0  0  0  0  0  0  0  0
  -15.2800  -15.5790  -26.1760 C   0  0  0  0  0  0  0  0  0  0  0  0
  -14.8490  -14.6990  -27.1550 C   0  0  0  0  0  0  0  0  0  0  0  0
  -15.2410  -13.3810  -27.0640 C   0  0  0  0  0  0  0  0  0  0  0  0
  -16.0410  -12.9240  -26.0380 C   0  0  0  0  0  0  0  0  0  0  0  0
  -16.4540  -13.8160  -25.0840 C   0  0  0  0  0  0  0  0  0  0  0  0
  -16.0860  -15.1450  -25.1330 C   0  0  0  0  0  0  0  0  0  0  0  0
  -16.3920  -18.0810  -23.5660 H   0  0  0  0  0  0  0  0  0  0  0  0
  -16.1576  -20.0136  -26.9565 H   0  0  0  0  0  0  0  0  0  0  0  0
  -14.7171  -22.2196  -26.5491 H   0  0  0  0  0  0  0  0  0  0  0  0
  -13.2637  -19.1290  -23.9970 H   0  0  0  0  0  0  0  0  0  0  0  0
  -14.2112  -15.0429  -27.9826 H   0  0  0  0  0  0  0  0  0  0  0  0
  -14.9051  -12.6710  -27.8342 H   0  0  0  0  0  0  0  0  0  0  0  0
  -16.3408  -11.8669  -25.9868 H   0  0  0  0  0  0  0  0  0  0  0  0
  -17.0933  -13.4650  -24.2605 H   0  0  0  0  0  0  0  0  0  0  0  0
  1  2  2  0
  2  3  1  0
  3  4  1  0
  4  5  1  0
  5  6  1  0
  6  7  2  0
  7  8  1  0
  8  9  2  0
  4 10  2  0
 10 11  1  0
 11 12  2  0
 12 13  1  0
 13 14  2  0
 14 15  1  0
 15 16  2  0
 16  2  1  0
  9  5  1  0
 16 11  1  0
  3 17  1  0
  6 18  1  0
  7 19  1  0
  9 20  1  0
 12 21  1  0
 13 22  1  0
 14 23  1  0
 15 24  1  0
M  END
>  <score_type>  (19) 
oracle

>  <origin>  (19) 
autodockgpu

>  <energy>  (19) 
[-8.17, -8.17, -8.17, -8.17, -8.17, -8.17, -8.17, -8.17, -8.17, -8.17, -8.17, -8.17, -8.17, -8.17, -8.17, -8.17, -8.17, -8.17, -8.17, -8.17]

>  <meeko>  (19) 
{"free_energy": -8.17, "intermolecular_energy": -8.47, "internal_energy": -0.1}

$$$$

     RDKit          3D

 24 26  0  0  0  0  0  0  0  0999 V2000
  -17.2020  -15.6350  -23.2510 O   0  0  0  0  0  0  0  0  0  0  0  0
  -16.4640  -16.0380  -24.2030 C   0  0  0  0  0  0  0  0  0  0  0  0
  -16.0970  -17.3300  -24.2730 N   0  0  0  0  0  0  0  0  0  0  0  0
  -15.3140  -17.7360  -25.2920 C   0  0  0  0  0  0  0  0  0  0  0  0
  -14.8810  -19.0800  -25.4400 N   0  0  0  0  0  0  0  0  0  0  0  0
  -15.3330  -20.0660  -26.2410 C   0  0  0  0  0  0  0  0  0  0  0  0
  -14.5980  -21.2130  -26.0390 C   0  0  0  0  0  0  0  0  0  0  0  0
  -13.6840  -20.9230  -25.0980 N   0  0  0  0  0  0  0  0  0  0  0  0
  -13.8690  -19.6280  -24.7470 C   0  0  0  0  0  0  0  0  0  0  0  0
  -14.9350  -16.8170  -26.1990 N   0  0  0  0  0  0  0  0  0  0  0  0
  -15.2730  -15.5370  -26.1680 C   0  0  0  0  0  0  0  0  0  0  0  0
  -14.8370  -14.6570  -27.1450 C   0  0  0  0  0  0  0  0  0  0  0  0
  -15.2250  -13.3380  -27.0530 C   0  0  0  0  0  0  0  0  0  0  0  0
  -16.0250  -12.8790  -26.0270 C   0  0  0  0  0  0  0  0  0  0  0  0
  -16.4430  -13.7710  -25.0750 C   0  0  0  0  0  0  0  0  0  0  0  0
  -16.0790  -15.1010  -25.1260 C   0  0  0  0  0  0  0  0  0  0  0  0
  -16.3970  -18.0390  -23.5630 H   0  0  0  0  0  0  0  0  0  0  0  0
  -16.1668  -19.9685  -26.9518 H   0  0  0  0  0  0  0  0  0  0  0  0
  -14.7330  -22.1784  -26.5487 H   0  0  0  0  0  0  0  0  0  0  0  0
  -13.2697  -19.0953  -23.9939 H   0  0  0  0  0  0  0  0  0  0  0  0
  -14.1985  -15.0018  -27.9717 H   0  0  0  0  0  0  0  0  0  0  0  0
  -14.8861  -12.6284  -27.8221 H   0  0  0  0  0  0  0  0  0  0  0  0
  -16.3205  -11.8207  -25.9746 H   0  0  0  0  0  0  0  0  0  0  0  0
  -17.0827  -13.4194  -24.2521 H   0  0  0  0  0  0  0  0  0  0  0  0
  1  2  2  0
  2  3  1  0
  3  4  1  0
  4  5  1  0
  5  6  1  0
  6  7  2  0
  7  8  1  0
  8  9  2  0
  4 10  2  0
 10 11  1  0
 11 12  2  0
 12 13  1  0
 13 14  2  0
 14 15  1  0
 15 16  2  0
 16  2  1  0
  9  5  1  0
 16 11  1  0
  3 17  1  0
  6 18  1  0
  7 19  1  0
  9 20  1  0
 12 21  1  0
 13 22  1  0
 14 23  1  0
 15 24  1  0
M  END
>  <score_type>  (20) 
oracle

>  <origin>  (20) 
autodockgpu

>  <energy>  (20) 
[-8.17, -8.17, -8.17, -8.17, -8.17, -8.17, -8.17, -8.17, -8.17, -8.17, -8.17, -8.17, -8.17, -8.17, -8.17, -8.17, -8.17, -8.17, -8.17, -8.17]

>  <meeko>  (20) 
{"free_energy": -8.17, "intermolecular_energy": -8.47, "internal_energy": -0.1}

$$$$
